6VX
  CCTOOLS-0919241043

 35 37  0  0  1  0  0  0  0  0999 V2000
    2.4900    1.4120    1.6740 O   0  0  0  0  0
    2.5350    1.8870    0.2280 S   0  0  0  0  0
    1.5870    2.9440    0.1770 O   0  0  0  0  0
    3.9130    2.1260   -0.0200 O   0  0  0  0  0
    1.9530    0.4630   -0.7330 C   0  0  0  0  0
    0.5540    0.1030   -0.3020 C   0  0  0  0  0
    0.3820   -0.6210    0.6560 O   0  0  0  0  0
   -0.5050    0.5860   -0.9800 N   0  0  0  0  0
   -1.7910    0.2550   -0.5840 C   0  0  0  0  0
   -2.8670    0.6630   -1.1630 N   0  0  0  0  0
   -4.0480    0.2550   -0.6590 C   0  0  0  0  0
   -5.3510    0.5580   -1.1070 C   0  0  0  0  0
   -6.4460    0.0430   -0.4600 C   0  0  0  0  0
   -6.2900   -0.7820    0.6440 C   0  0  0  0  0
   -5.0270   -1.0920    1.0990 C   0  0  0  0  0
   -3.9050   -0.5790    0.4550 C   0  0  0  0  0
   -2.1850   -0.7860    0.7760 S   0  0  0  0  0
    2.8680   -0.7110   -0.4970 C   0  0  0  0  0
    3.0280   -1.2180    0.7790 C   0  0  0  0  0
    3.8680   -2.2940    0.9950 C   0  0  0  0  0
    4.5480   -2.8640   -0.0650 C   0  0  0  0  0
    4.3890   -2.3570   -1.3410 C   0  0  0  0  0
    3.5450   -1.2830   -1.5580 C   0  0  0  0  0
    1.9520    0.7160   -1.7930 H   0  0  0  0  0
   -0.3680    1.1650   -1.7460 H   0  0  0  0  0
   -5.4880    1.1990   -1.9650 H   0  0  0  0  0
   -7.4380    0.2820   -0.8130 H   0  0  0  0  0
   -7.1580   -1.1820    1.1470 H   0  0  0  0  0
   -4.9070   -1.7340    1.9590 H   0  0  0  0  0
    2.4960   -0.7730    1.6070 H   0  0  0  0  0
    3.9920   -2.6900    1.9920 H   0  0  0  0  0
    5.2050   -3.7040    0.1040 H   0  0  0  0  0
    4.9210   -2.8020   -2.1690 H   0  0  0  0  0
    3.4170   -0.8900   -2.5560 H   0  0  0  0  0
    2.7780    2.0770    2.3150 H   0  0  0  0  0
  1  2  1  0  0  0
  1 35  1  0  0  0
  2  5  1  0  0  0
  3  2  2  0  0  0
  4  2  2  0  0  0
  5  6  1  0  0  0
  5 18  1  0  0  0
  5 24  1  0  0  0
  6  8  1  0  0  0
  7  6  2  0  0  0
  8  9  1  0  0  0
  8 25  1  0  0  0
  9 10  2  0  0  0
 10 11  1  0  0  0
 11 12  2  0  0  0
 12 13  1  0  0  0
 12 26  1  0  0  0
 13 27  1  0  0  0
 14 13  2  0  0  0
 14 28  1  0  0  0
 15 14  1  0  0  0
 15 29  1  0  0  0
 16 15  2  0  0  0
 16 11  1  0  0  0
 17  9  1  0  0  0
 17 16  1  0  0  0
 18 23  2  0  0  0
 18 19  1  0  0  0
 19 20  2  0  0  0
 19 30  1  0  0  0
 20 21  1  0  0  0
 20 31  1  0  0  0
 21 32  1  0  0  0
 22 21  2  0  0  0
 22 33  1  0  0  0
 23 22  1  0  0  0
 23 34  1  0  0  0
M  END
$$$$
