lig
 OpenBabel01242607593D

 82 84  0  0  1  0  0  0  0  0999 V2000
    7.0600   21.2470    5.7930 S   0  0  0  0  0  0  0  0  0  0  0  0
    8.1230   22.1520    5.6300 O   0  0  0  0  0  0  0  0  0  0  0  0
    5.7770   21.7370    5.4830 O   0  0  0  0  0  0  0  0  0  0  0  0
   12.1110   20.6540    2.3960 C   0  0  0  0  0  0  0  0  0  0  0  0
   11.1470   21.4080    3.0100 C   0  0  0  0  0  0  0  0  0  0  0  0
    9.8040   20.9610    3.0480 C   0  0  0  0  0  0  0  0  0  0  0  0
    9.4330   19.7650    2.4760 C   0  0  0  0  0  0  0  0  0  0  0  0
   10.4230   18.9690    1.8080 C   0  0  0  0  0  0  0  0  0  0  0  0
   11.7690   19.4190    1.7810 C   0  0  0  0  0  0  0  0  0  0  0  0
   12.7600   18.6310    1.1320 C   0  0  0  0  0  0  0  0  0  0  0  0
   12.4250   17.4460    0.5260 C   0  0  0  0  0  0  0  0  0  0  0  0
   11.0820   17.0000    0.5400 C   0  0  0  0  0  0  0  0  0  0  0  0
   10.1080   17.7410    1.1620 C   0  0  0  0  0  0  0  0  0  0  0  0
    2.5530   16.5320   -0.6410 O   0  0  0  0  0  0  0  0  0  0  0  0
    2.0000   17.7960   -0.9340 C   0  0  0  0  0  0  0  0  0  0  0  0
    3.3090   18.9750    0.8180 N   0  0  0  0  0  0  0  0  0  0  0  0
    2.9390   18.9720   -0.5750 C   0  0  1  0  0  0  0  0  0  0  0  0
    4.1570   18.9340   -1.5190 C   0  0  0  0  0  0  0  0  0  0  0  0
    4.9550   20.1870   -1.4870 C   0  0  0  0  0  0  0  0  0  0  0  0
    6.2770   20.1730   -1.0290 C   0  0  0  0  0  0  0  0  0  0  0  0
    7.0330   21.3440   -1.0240 C   0  0  0  0  0  0  0  0  0  0  0  0
    6.4760   22.5400   -1.4770 C   0  0  0  0  0  0  0  0  0  0  0  0
    5.1590   22.5590   -1.9360 C   0  0  0  0  0  0  0  0  0  0  0  0
    4.4020   21.3910   -1.9430 C   0  0  0  0  0  0  0  0  0  0  0  0
    4.5530   20.1610    3.3670 N   0  0  0  0  0  0  0  0  0  0  0  0
    3.2120   19.6570    3.2040 C   0  0  2  0  0  0  0  0  0  0  0  0
    2.7470   19.8340    1.7310 C   0  0  0  0  0  0  0  0  0  0  0  0
    1.9230   20.7090    1.4030 O   0  0  0  0  0  0  0  0  0  0  0  0
    2.1830   20.3280    4.1410 C   0  0  0  0  0  0  0  0  0  0  0  0
    0.8800   19.5560    4.0780 C   0  0  0  0  0  0  0  0  0  0  0  0
    2.6810   20.3940    5.5690 C   0  0  0  0  0  0  0  0  0  0  0  0
    5.6560   19.3820    3.1220 C   0  0  0  0  0  0  0  0  0  0  0  0
    5.5390   18.2110    2.6980 O   0  0  0  0  0  0  0  0  0  0  0  0
    7.0420   19.9910    3.3850 C   0  0  2  0  0  0  0  0  0  0  0  0
    8.0360   19.2530    2.4960 C   0  0  0  0  0  0  0  0  0  0  0  0
    7.3860   19.8480    4.8610 C   0  0  0  0  0  0  0  0  0  0  0  0
    5.9200   19.6470    7.6520 C   0  0  0  0  0  0  0  0  0  0  0  0
    7.0690   20.6090    7.4140 C   0  0  0  0  0  0  0  0  0  0  0  0
    6.8960   21.8090    8.3390 C   0  0  0  0  0  0  0  0  0  0  0  0
    8.3840   19.9280    7.7390 C   0  0  0  0  0  0  0  0  0  0  0  0
   13.1580   20.9880    2.3650 H   0  0  0  0  0  0  0  0  0  0  0  0
   11.3950   22.3690    3.4860 H   0  0  0  0  0  0  0  0  0  0  0  0
    9.0720   21.6060    3.5630 H   0  0  0  0  0  0  0  0  0  0  0  0
   13.7980   18.9950    1.1260 H   0  0  0  0  0  0  0  0  0  0  0  0
   13.1890   16.8340    0.0240 H   0  0  0  0  0  0  0  0  0  0  0  0
   10.8300   16.0520    0.0420 H   0  0  0  0  0  0  0  0  0  0  0  0
    9.0670   17.3850    1.1570 H   0  0  0  0  0  0  0  0  0  0  0  0
    3.3610   16.4430   -1.1590 H   0  0  0  0  0  0  0  0  0  0  0  0
    1.0610   17.8420   -0.3180 H   0  0  0  0  0  0  0  0  0  0  0  0
    1.7360   17.8650   -2.0230 H   0  0  0  0  0  0  0  0  0  0  0  0
    3.9420   18.2710    1.1260 H   0  0  0  0  0  0  0  0  0  0  0  0
    2.3620   19.9270   -0.7820 H   0  0  0  0  0  0  0  0  0  0  0  0
    3.7720   18.7750   -2.5620 H   0  0  0  0  0  0  0  0  0  0  0  0
    4.8080   18.0560   -1.2620 H   0  0  0  0  0  0  0  0  0  0  0  0
    6.7230   19.2320   -0.6710 H   0  0  0  0  0  0  0  0  0  0  0  0
    8.0730   21.3220   -0.6630 H   0  0  0  0  0  0  0  0  0  0  0  0
    7.0730   23.4630   -1.4720 H   0  0  0  0  0  0  0  0  0  0  0  0
    4.7150   23.5020   -2.2920 H   0  0  0  0  0  0  0  0  0  0  0  0
    3.3630   21.4130   -2.3020 H   0  0  0  0  0  0  0  0  0  0  0  0
    4.6560   21.0870    3.7260 H   0  0  0  0  0  0  0  0  0  0  0  0
    3.2220   18.5460    3.4360 H   0  0  0  0  0  0  0  0  0  0  0  0
    1.9970   21.3750    3.7660 H   0  0  0  0  0  0  0  0  0  0  0  0
    0.1200   20.0440    4.7350 H   0  0  0  0  0  0  0  0  0  0  0  0
    0.4870   19.5430    3.0330 H   0  0  0  0  0  0  0  0  0  0  0  0
    1.0230   18.5040    4.4250 H   0  0  0  0  0  0  0  0  0  0  0  0
    3.5060   21.1410    5.6770 H   0  0  0  0  0  0  0  0  0  0  0  0
    1.8460   20.7010    6.2450 H   0  0  0  0  0  0  0  0  0  0  0  0
    3.0550   19.3980    5.9040 H   0  0  0  0  0  0  0  0  0  0  0  0
    7.0350   21.0820    3.1020 H   0  0  0  0  0  0  0  0  0  0  0  0
    8.0400   18.1740    2.8220 H   0  0  0  0  0  0  0  0  0  0  0  0
    7.6370   19.2770    1.4410 H   0  0  0  0  0  0  0  0  0  0  0  0
    6.8680   18.9320    5.2550 H   0  0  0  0  0  0  0  0  0  0  0  0
    8.4860   19.6080    4.9270 H   0  0  0  0  0  0  0  0  0  0  0  0
    4.9740   20.0550    7.2100 H   0  0  0  0  0  0  0  0  0  0  0  0
    6.1330   18.6460    7.2030 H   0  0  0  0  0  0  0  0  0  0  0  0
    5.7610   19.4990    8.7480 H   0  0  0  0  0  0  0  0  0  0  0  0
    5.9020   22.2890    8.1620 H   0  0  0  0  0  0  0  0  0  0  0  0
    6.9470   21.4850    9.4070 H   0  0  0  0  0  0  0  0  0  0  0  0
    7.7090   22.5570    8.1580 H   0  0  0  0  0  0  0  0  0  0  0  0
    8.4260   19.6710    8.8260 H   0  0  0  0  0  0  0  0  0  0  0  0
    8.4960   18.9820    7.1560 H   0  0  0  0  0  0  0  0  0  0  0  0
    9.2400   20.6090    7.5040 H   0  0  0  0  0  0  0  0  0  0  0  0
  1 38  1  0  0  0  0
  2  1  2  0  0  0  0
  3  1  2  0  0  0  0
  4  5  1  0  0  0  0
  5  6  2  0  0  0  0
  5 42  1  0  0  0  0
  6 43  1  0  0  0  0
  7 35  1  0  0  0  0
  7  6  1  0  0  0  0
  8  7  2  0  0  0  0
  9  8  1  0  0  0  0
  9  4  2  0  0  0  0
 10  9  1  0  0  0  0
 11 12  1  0  0  0  0
 11 10  2  0  0  0  0
 12 13  2  0  0  0  0
 13  8  1  0  0  0  0
 15 14  1  0  0  0  0
 15 17  1  0  0  0  0
 15 49  1  0  0  0  0
 16 51  1  0  0  0  0
 16 27  1  0  0  0  0
 17 52  1  6  0  0  0
 17 16  1  0  0  0  0
 18 19  1  0  0  0  0
 18 54  1  0  0  0  0
 18 17  1  0  0  0  0
 19 20  1  0  0  0  0
 20 21  2  0  0  0  0
 20 55  1  0  0  0  0
 21 56  1  0  0  0  0
 22 57  1  0  0  0  0
 22 21  1  0  0  0  0
 23 22  2  0  0  0  0
 24 23  1  0  0  0  0
 24 19  2  0  0  0  0
 25 60  1  0  0  0  0
 26 25  1  0  0  0  0
 26 61  1  1  0  0  0
 26 29  1  0  0  0  0
 27 26  1  0  0  0  0
 28 27  2  0  0  0  0
 29 31  1  0  0  0  0
 30 29  1  0  0  0  0
 30 65  1  0  0  0  0
 30 63  1  0  0  0  0
 31 66  1  0  0  0  0
 31 68  1  0  0  0  0
 31 67  1  0  0  0  0
 32 25  1  0  0  0  0
 32 34  1  0  0  0  0
 33 32  2  0  0  0  0
 34 69  1  6  0  0  0
 34 36  1  0  0  0  0
 35 70  1  0  0  0  0
 35 34  1  0  0  0  0
 36 73  1  0  0  0  0
 36 72  1  0  0  0  0
 36  1  1  0  0  0  0
 37 76  1  0  0  0  0
 38 37  1  0  0  0  0
 38 40  1  0  0  0  0
 38 39  1  0  0  0  0
 39 78  1  0  0  0  0
 40 80  1  0  0  0  0
 41  4  1  0  0  0  0
 44 10  1  0  0  0  0
 45 11  1  0  0  0  0
 46 12  1  0  0  0  0
 47 13  1  0  0  0  0
 48 14  1  0  0  0  0
 50 15  1  0  0  0  0
 53 18  1  0  0  0  0
 58 23  1  0  0  0  0
 59 24  1  0  0  0  0
 62 29  1  0  0  0  0
 64 30  1  0  0  0  0
 71 35  1  0  0  0  0
 74 37  1  0  0  0  0
 75 37  1  0  0  0  0
 77 39  1  0  0  0  0
 79 39  1  0  0  0  0
 81 40  1  0  0  0  0
 82 40  1  0  0  0  0
M  END
