6vx
  MJ221101                      

 82 84  0  0  1  0  0  0  0  0999 V2000
    2.2224    9.8011    0.0000 S   0  0  0  0  0  0  0  0  0  0  0  0
    1.8099    9.0866    0.0000 O   0  0  0  0  0  0  0  0  0  0  0  0
    2.6349   10.5155    0.0000 O   0  0  0  0  0  0  0  0  0  0  0  0
   -1.3499   10.2136    0.0000 C   0  0  0  0  0  0  0  0  0  0  0  0
   -1.3499   11.0386    0.0000 C   0  0  0  0  0  0  0  0  0  0  0  0
   -0.6354   11.4511    0.0000 C   0  0  0  0  0  0  0  0  0  0  0  0
    0.0790   11.0386    0.0000 C   0  0  0  0  0  0  0  0  0  0  0  0
    0.0790   10.2136    0.0000 C   0  0  0  0  0  0  0  0  0  0  0  0
   -0.6354    9.8011    0.0000 C   0  0  0  0  0  0  0  0  0  0  0  0
   -0.6354    8.9761    0.0000 C   0  0  0  0  0  0  0  0  0  0  0  0
    0.0790    8.5635    0.0000 C   0  0  0  0  0  0  0  0  0  0  0  0
    0.7935    8.9761    0.0000 C   0  0  0  0  0  0  0  0  0  0  0  0
    0.7935    9.8011    0.0000 C   0  0  0  0  0  0  0  0  0  0  0  0
    6.5093    9.8011    0.0000 O   0  0  0  0  0  0  0  0  0  0  0  0
    5.7948   10.2136    0.0000 C   0  0  0  0  0  0  0  0  0  0  0  0
    5.0803   11.4511    0.0000 N   0  0  0  0  0  0  0  0  0  0  0  0
    5.7948   11.0386    0.0000 C   0  0  0  0  0  0  0  0  0  0  0  0
    6.5093   11.4511    0.0000 C   0  0  0  0  0  0  0  0  0  0  0  0
    7.2237   11.0386    0.0000 C   0  0  0  0  0  0  0  0  0  0  0  0
    7.9382   11.4511    0.0000 C   0  0  0  0  0  0  0  0  0  0  0  0
    8.6527   11.0386    0.0000 C   0  0  0  0  0  0  0  0  0  0  0  0
    8.6527   10.2136    0.0000 C   0  0  0  0  0  0  0  0  0  0  0  0
    7.9382    9.8011    0.0000 C   0  0  0  0  0  0  0  0  0  0  0  0
    7.2237   10.2136    0.0000 C   0  0  0  0  0  0  0  0  0  0  0  0
    2.9369   11.0386    0.0000 N   0  0  0  0  0  0  0  0  0  0  0  0
    3.6514   11.4511    0.0000 C   0  0  0  0  0  0  0  0  0  0  0  0
    4.3659   11.0386    0.0000 C   0  0  0  0  0  0  0  0  0  0  0  0
    4.3659   10.2136    0.0000 O   0  0  0  0  0  0  0  0  0  0  0  0
    3.6514   12.2761    0.0000 C   0  0  0  0  0  0  0  0  0  0  0  0
    2.9369   12.6885    0.0000 C   0  0  0  0  0  0  0  0  0  0  0  0
    4.3659   12.6885    0.0000 C   0  0  0  0  0  0  0  0  0  0  0  0
    2.2224   11.4511    0.0000 C   0  0  0  0  0  0  0  0  0  0  0  0
    2.2224   12.2761    0.0000 O   0  0  0  0  0  0  0  0  0  0  0  0
    1.5080   11.0386    0.0000 C   0  0  0  0  0  0  0  0  0  0  0  0
    0.7935   11.4511    0.0000 C   0  0  0  0  0  0  0  0  0  0  0  0
    1.5080   10.2136    0.0000 C   0  0  0  0  0  0  0  0  0  0  0  0
    2.5244    8.6740    0.0000 C   0  0  0  0  0  0  0  0  0  0  0  0
    2.9369    9.3886    0.0000 C   0  0  0  0  0  0  0  0  0  0  0  0
    3.6514    8.9761    0.0000 C   0  0  0  0  0  0  0  0  0  0  0  0
    3.3494   10.1031    0.0000 C   0  0  0  0  0  0  0  0  0  0  0  0
   -2.0644    9.8011    0.0000 H   0  0  0  0  0  0  0  0  0  0  0  0
   -2.0644   11.4511    0.0000 H   0  0  0  0  0  0  0  0  0  0  0  0
   -0.6354   12.2761    0.0000 H   0  0  0  0  0  0  0  0  0  0  0  0
   -1.3499    8.5635    0.0000 H   0  0  0  0  0  0  0  0  0  0  0  0
    0.0790    7.7386    0.0000 H   0  0  0  0  0  0  0  0  0  0  0  0
    1.5080    8.5635    0.0000 H   0  0  0  0  0  0  0  0  0  0  0  0
    1.5080    9.3886    0.0000 H   0  0  0  0  0  0  0  0  0  0  0  0
    6.5093    8.9761    0.0000 H   0  0  0  0  0  0  0  0  0  0  0  0
    4.9711   10.1655    0.0000 H   0  0  0  0  0  0  0  0  0  0  0  0
    5.3414    9.5243    0.0000 H   0  0  0  0  0  0  0  0  0  0  0  0
    5.0803   12.2761    0.0000 H   0  0  0  0  0  0  0  0  0  0  0  0
    5.0803   10.6260    0.0000 H   0  0  0  0  0  0  0  0  0  0  0  0
    6.1390   12.1883    0.0000 H   0  0  0  0  0  0  0  0  0  0  0  0
    6.8795   12.1883    0.0000 H   0  0  0  0  0  0  0  0  0  0  0  0
    7.9382   12.2761    0.0000 H   0  0  0  0  0  0  0  0  0  0  0  0
    9.3671   11.4511    0.0000 H   0  0  0  0  0  0  0  0  0  0  0  0
    9.3671    9.8011    0.0000 H   0  0  0  0  0  0  0  0  0  0  0  0
    7.9382    8.9761    0.0000 H   0  0  0  0  0  0  0  0  0  0  0  0
    6.5093   10.6260    0.0000 H   0  0  0  0  0  0  0  0  0  0  0  0
    3.5203   10.4552    0.0000 H   0  0  0  0  0  0  0  0  0  0  0  0
    2.9369   11.8636    0.0000 H   0  0  0  0  0  0  0  0  0  0  0  0
    4.3659   11.8636    0.0000 H   0  0  0  0  0  0  0  0  0  0  0  0
    2.9369   13.5135    0.0000 H   0  0  0  0  0  0  0  0  0  0  0  0
    2.2224   13.1011    0.0000 H   0  0  0  0  0  0  0  0  0  0  0  0
    3.6514   13.1011    0.0000 H   0  0  0  0  0  0  0  0  0  0  0  0
    5.1627   12.9021    0.0000 H   0  0  0  0  0  0  0  0  0  0  0  0
    4.1523   13.4855    0.0000 H   0  0  0  0  0  0  0  0  0  0  0  0
    4.7784   13.4031    0.0000 H   0  0  0  0  0  0  0  0  0  0  0  0
    2.2224   10.6260    0.0000 H   0  0  0  0  0  0  0  0  0  0  0  0
    1.1638   12.1883    0.0000 H   0  0  0  0  0  0  0  0  0  0  0  0
    0.4232   12.1883    0.0000 H   0  0  0  0  0  0  0  0  0  0  0  0
    0.6955   10.3568    0.0000 H   0  0  0  0  0  0  0  0  0  0  0  0
    0.9777   10.8455    0.0000 H   0  0  0  0  0  0  0  0  0  0  0  0
    2.7378    7.8772    0.0000 H   0  0  0  0  0  0  0  0  0  0  0  0
    3.3424    8.5664    0.0000 H   0  0  0  0  0  0  0  0  0  0  0  0
    1.8699    8.1719    0.0000 H   0  0  0  0  0  0  0  0  0  0  0  0
    4.4599    9.1404    0.0000 H   0  0  0  0  0  0  0  0  0  0  0  0
    4.0913    8.2782    0.0000 H   0  0  0  0  0  0  0  0  0  0  0  0
    3.7841    9.7903    0.0000 H   0  0  0  0  0  0  0  0  0  0  0  0
    4.1492   10.3053    0.0000 H   0  0  0  0  0  0  0  0  0  0  0  0
    3.1074   10.8918    0.0000 H   0  0  0  0  0  0  0  0  0  0  0  0
    2.5525    9.8895    0.0000 H   0  0  0  0  0  0  0  0  0  0  0  0
  1 38  1  0  0  0  0
  2  1  2  0  0  0  0
  3  1  2  0  0  0  0
  4  5  1  0  0  0  0
  5  6  2  0  0  0  0
  5 42  1  0  0  0  0
  6 43  1  0  0  0  0
  7 35  1  0  0  0  0
  7  6  1  0  0  0  0
  8  7  2  0  0  0  0
  9  8  1  0  0  0  0
  9  4  2  0  0  0  0
 10  9  1  0  0  0  0
 11 12  1  0  0  0  0
 11 10  2  0  0  0  0
 12 13  2  0  0  0  0
 13  8  1  0  0  0  0
 15 14  1  0  0  0  0
 15 17  1  0  0  0  0
 15 49  1  0  0  0  0
 16 51  1  0  0  0  0
 16 27  1  0  0  0  0
 17 52  1  6  0  0  0
 17 16  1  1  0  0  0
 18 19  1  0  0  0  0
 18 54  1  0  0  0  0
 18 17  1  0  0  0  0
 19 20  1  0  0  0  0
 20 21  2  0  0  0  0
 20 55  1  0  0  0  0
 21 56  1  0  0  0  0
 22 57  1  0  0  0  0
 22 21  1  0  0  0  0
 23 22  2  0  0  0  0
 24 23  1  0  0  0  0
 24 19  2  0  0  0  0
 25 60  1  0  0  0  0
 26 25  1  1  0  0  0
 26 61  1  6  0  0  0
 26 29  1  0  0  0  0
 27 26  1  0  0  0  0
 28 27  2  0  0  0  0
 29 31  1  0  0  0  0
 30 29  1  0  0  0  0
 30 65  1  0  0  0  0
 30 63  1  0  0  0  0
 31 66  1  0  0  0  0
 31 68  1  0  0  0  0
 31 67  1  0  0  0  0
 32 25  1  0  0  0  0
 34 32  1  1  0  0  0
 33 32  2  0  0  0  0
 34 69  1  6  0  0  0
 34 36  1  0  0  0  0
 35 70  1  0  0  0  0
 35 34  1  0  0  0  0
 36 73  1  0  0  0  0
 36 72  1  0  0  0  0
 36  1  1  0  0  0  0
 37 76  1  0  0  0  0
 38 37  1  0  0  0  0
 38 40  1  0  0  0  0
 38 39  1  0  0  0  0
 39 78  1  0  0  0  0
 40 80  1  0  0  0  0
 41  4  1  0  0  0  0
 44 10  1  0  0  0  0
 45 11  1  0  0  0  0
 46 12  1  0  0  0  0
 47 13  1  0  0  0  0
 48 14  1  0  0  0  0
 50 15  1  0  0  0  0
 53 18  1  0  0  0  0
 58 23  1  0  0  0  0
 59 24  1  0  0  0  0
 62 29  1  0  0  0  0
 64 30  1  0  0  0  0
 71 35  1  0  0  0  0
 74 37  1  0  0  0  0
 75 37  1  0  0  0  0
 77 39  1  0  0  0  0
 79 39  1  0  0  0  0
 81 40  1  0  0  0  0
 82 40  1  0  0  0  0
M  END
