@<TRIPOS>MOLECULE
lig
 82 84 0 0 0
SMALL
GASTEIGER

@<TRIPOS>ATOM
      1 S1          1.6855   -2.2780    2.5381 S.O2    1  <1>        -0.0255
      2 O1          2.1323   -1.0433    3.4890 O.2     1  <1>        -0.1738
      3 O2          2.9669   -3.2292    2.4968 O.2     1  <1>        -0.1738
      4 C1         -0.2387   -6.8702   -2.6749 C.3     1  <1>        -0.0540
      5 C2         -0.7444   -5.6344   -3.0444 C.3     1  <1>        -0.0609
      6 C3         -0.4967   -4.4943   -2.2608 C.3     1  <1>        -0.0580
      7 C4          0.2025   -4.5744   -1.0332 C.3     1  <1>        -0.0389
      8 C5          0.7998   -5.8365   -0.6903 C.3     1  <1>        -0.0147
      9 C6          0.5600   -6.9832   -1.5225 C.3     1  <1>        -0.0176
     10 C7          1.0717   -8.2523   -1.2114 C.3     1  <1>        -0.0540
     11 C8          1.8452   -8.4167   -0.0529 C.3     1  <1>        -0.0612
     12 C9          2.0915   -7.3092    0.7818 C.3     1  <1>        -0.0612
     13 C10         1.6153   -6.0287    0.4541 C.3     1  <1>        -0.0538
     14 O          -1.0801   -1.3669   -7.4681 O.3     1  VAL11      -0.3932
     15 C          -0.9194   -2.6953   -6.9885 C.3     1  VAL11       0.0629
     16 N          -0.2179   -2.0341   -4.7300 N.am    1  VAL11      -0.3084
     17 CA         -1.2517   -2.7986   -5.4770 C.3     1  VAL11       0.0502
     18 CB         -2.7392   -2.3874   -5.1668 C.3     1  VAL11      -0.0071
     19 CG         -3.2026   -2.5304   -3.7488 C.3     1  VAL11      -0.0455
     20 CD1        -3.4251   -1.3866   -2.9326 C.3     1  VAL11      -0.0585
     21 CE1        -3.7297   -1.5242   -1.5649 C.3     1  VAL11      -0.0615
     22 CZ         -3.8078   -2.8023   -0.9785 C.3     1  VAL11      -0.0617
     23 CE2        -3.6941   -3.9425   -1.7936 C.3     1  VAL11      -0.0615
     24 CD2        -3.4471   -3.8057   -3.1769 C.3     1  VAL11      -0.0585
     25 N           2.1001   -1.7341   -2.5307 N.am    1  VAL11      -0.3035
     26 CA          1.9951   -1.2104   -3.8403 C.3     1  VAL11       0.1017
     27 C           1.1863   -2.2029   -4.6082 C.2     1  VAL11       0.2339
     28 O           1.7400   -3.2204   -5.0888 O.2     1  VAL11      -0.2738
     29 CB          3.4276   -0.8669   -4.3652 C.3     1  VAL11      -0.0197
     30 CG2         3.3239   -0.2768   -5.7952 C.3     1  VAL11      -0.0605
     31 CG1         4.1975    0.1024   -3.4084 C.3     1  VAL11      -0.0605
     32 C25         1.1759   -1.5799   -1.5417 C.2     1  <1>         0.2186
     33 O5          0.1575   -0.8559   -1.7081 O.2     1  <1>        -0.2754
     34 C26         1.3516   -2.3753   -0.3023 C.3     1  <1>         0.0588
     35 C27         0.1640   -3.3646   -0.1830 C.3     1  <1>        -0.0145
     36 C28         1.5130   -1.4145    0.9102 C.3     1  <1>         0.0777
     37 C29         0.5083   -2.9948    4.9451 C.3     1  <1>        -0.0405
     38 C30         0.1935   -3.0328    3.4097 C.3     1  <1>         0.0795
     39 C31        -1.0044   -2.0883    3.0702 C.3     1  <1>        -0.0405
     40 C32        -0.1600   -4.5797    3.2865 C.3     1  <1>        -0.0405
     41 H1         -0.4662   -7.6963   -3.2479 H       1  <1>         0.0624
     42 H2         -1.3201   -5.5895   -3.8839 H       1  <1>         0.0618
     43 H3         -0.8523   -3.5968   -2.5654 H       1  <1>         0.0620
     44 H4          0.8816   -9.0700   -1.8021 H       1  <1>         0.0624
     45 H5          2.2029   -9.3484    0.1667 H       1  <1>         0.0618
     46 H6          2.6307   -7.4702    1.6416 H       1  <1>         0.0618
     47 H7          1.8707   -5.2365    1.0558 H       1  <1>         0.0624
     48 H          -0.9537   -1.4414   -8.4368 H       1  VAL11       0.2095
     49 H1         -1.5764   -3.3522   -7.5624 H       1  VAL11       0.0576
     50 H2          0.1172   -2.9960   -7.1673 H       1  VAL11       0.0576
     51 H          -0.5667   -1.2771   -4.2380 H       1  VAL11       0.1491
     52 HA         -1.1507   -3.8472   -5.2228 H       1  VAL11       0.0524
     53 HB1        -3.4069   -2.9933   -5.7889 H       1  VAL11       0.0332
     54 HB2        -2.8793   -1.3542   -5.4905 H       1  VAL11       0.0332
     55 HD1        -3.3525   -0.4437   -3.3297 H       1  VAL11       0.0620
     56 HE1        -3.8831   -0.6930   -0.9873 H       1  VAL11       0.0618
     57 HZ         -3.9637   -2.9018    0.0311 H       1  VAL11       0.0618
     58 HE2        -3.7919   -4.8721   -1.3791 H       1  VAL11       0.0618
     59 HD2        -3.4223   -4.6517   -3.7571 H       1  VAL11       0.0620
     60 H           2.8756   -2.2814   -2.3217 H       1  VAL11       0.1495
     61 HA          1.4635   -0.2570   -3.8284 H       1  VAL11       0.0597
     62 HB          4.0114   -1.7882   -4.4180 H       1  VAL11       0.0318
     63 HG21        4.3139   -0.0560   -6.1912 H       1  VAL11       0.0233
     64 HG22        2.7331    0.6415   -5.7835 H       1  VAL11       0.0233
     65 HG23        2.8382   -0.9909   -6.4635 H       1  VAL11       0.0233
     66 HG11        5.1913    0.3234   -3.8029 H       1  VAL11       0.0233
     67 HG12        3.6550    1.0420   -3.2855 H       1  VAL11       0.0233
     68 HG13        4.3314   -0.3439   -2.4191 H       1  VAL11       0.0233
     69 H29         2.2825   -2.9365   -0.3768 H       1  <1>         0.0413
     70 H30        -0.7347   -2.7781   -0.3413 H       1  <1>         0.0321
     71 H31         0.0499   -3.7006    0.8001 H       1  <1>         0.0321
     72 H32         0.7162   -0.6530    0.9616 H       1  <1>         0.0507
     73 H33         2.4435   -0.8737    0.7481 H       1  <1>         0.0507
     74 H34        -0.2968   -3.3897    5.5809 H       1  <1>         0.0251
     75 H35         0.6931   -1.9768    5.2770 H       1  <1>         0.0251
     76 H36         1.4035   -3.5903    5.1569 H       1  <1>         0.0251
     77 H37        -1.9583   -2.4527    3.4654 H       1  <1>         0.0251
     78 H38        -1.0987   -1.9472    1.9884 H       1  <1>         0.0251
     79 H39        -0.8076   -1.1152    3.5282 H       1  <1>         0.0251
     80 H40        -1.0899   -4.7797    3.8050 H       1  <1>         0.0251
     81 H41        -0.3215   -5.0169    2.3062 H       1  <1>         0.0251
     82 H42         0.6528   -5.1444    3.7433 H       1  <1>         0.0251
@<TRIPOS>BOND
     1     1    38    1
     2     2     1    2
     3     3     1    2
     4     4     5   ar
     5     5     6   ar
     6     5    42    1
     7     6    43    1
     8     7    35    1
     9     7     6   ar
    10     8     7   ar
    11     9     8   ar
    12     9     4   ar
    13    10     9   ar
    14    11    12   ar
    15    11    10   ar
    16    12    13   ar
    17    13     8   ar
    18    15    14    1
    19    15    17    1
    20    15    49    1
    21    16    51    1
    22    16    27   am
    23    17    52    1
    24    17    16    1
    25    18    19    1
    26    18    54    1
    27    18    17    1
    28    19    20   ar
    29    20    21   ar
    30    20    55    1
    31    21    56    1
    32    22    57    1
    33    22    21   ar
    34    23    22   ar
    35    24    23   ar
    36    24    19   ar
    37    25    60    1
    38    26    25    1
    39    26    61    1
    40    26    29    1
    41    27    26    1
    42    28    27    2
    43    29    31    1
    44    30    29    1
    45    30    65    1
    46    30    63    1
    47    31    66    1
    48    31    68    1
    49    31    67    1
    50    32    25   am
    51    34    32    1
    52    33    32    2
    53    34    69    1
    54    34    36    1
    55    35    70    1
    56    35    34    1
    57    36    73    1
    58    36    72    1
    59    36     1    1
    60    37    76    1
    61    38    37    1
    62    38    40    1
    63    38    39    1
    64    39    78    1
    65    40    80    1
    66    41     4    1
    67    44    10    1
    68    45    11    1
    69    46    12    1
    70    47    13    1
    71    48    14    1
    72    50    15    1
    73    53    18    1
    74    58    23    1
    75    59    24    1
    76    62    29    1
    77    64    30    1
    78    71    35    1
    79    74    37    1
    80    75    37    1
    81    77    39    1
    82    79    39    1
    83    81    40    1
    84    82    40    1
