6vx
  Mrv15b2301242607593D          

 82 84  0  0  1  0            999 V2000
    1.6855   -2.2780    2.5381 S   0  0  2  0  0  0  0  0  0  0  0  0
    2.1323   -1.0433    3.4890 O   0  0  0  0  0  0  0  0  0  0  0  0
    2.9669   -3.2292    2.4968 O   0  0  0  0  0  0  0  0  0  0  0  0
   -0.2387   -6.8702   -2.6749 C   0  0  0  0  0  0  0  0  0  0  0  0
   -0.7444   -5.6344   -3.0444 C   0  0  0  0  0  0  0  0  0  0  0  0
   -0.4967   -4.4943   -2.2608 C   0  0  0  0  0  0  0  0  0  0  0  0
    0.2025   -4.5744   -1.0332 C   0  0  0  0  0  0  0  0  0  0  0  0
    0.7998   -5.8365   -0.6903 C   0  0  0  0  0  0  0  0  0  0  0  0
    0.5600   -6.9832   -1.5225 C   0  0  0  0  0  0  0  0  0  0  0  0
    1.0717   -8.2523   -1.2114 C   0  0  0  0  0  0  0  0  0  0  0  0
    1.8452   -8.4167   -0.0529 C   0  0  0  0  0  0  0  0  0  0  0  0
    2.0915   -7.3092    0.7818 C   0  0  0  0  0  0  0  0  0  0  0  0
    1.6153   -6.0287    0.4541 C   0  0  0  0  0  0  0  0  0  0  0  0
   -1.0801   -1.3669   -7.4681 O   0  0  0  0  0  0  0  0  0  0  0  0
   -0.9194   -2.6953   -6.9885 C   0  0  1  0  0  0  0  0  0  0  0  0
   -0.2179   -2.0341   -4.7300 N   0  0  0  0  0  0  0  0  0  0  0  0
   -1.2517   -2.7986   -5.4770 C   0  0  1  0  0  0  0  0  0  0  0  0
   -2.7392   -2.3874   -5.1668 C   0  0  2  0  0  0  0  0  0  0  0  0
   -3.2026   -2.5304   -3.7488 C   0  0  0  0  0  0  0  0  0  0  0  0
   -3.4251   -1.3866   -2.9326 C   0  0  0  0  0  0  0  0  0  0  0  0
   -3.7297   -1.5242   -1.5649 C   0  0  0  0  0  0  0  0  0  0  0  0
   -3.8078   -2.8023   -0.9785 C   0  0  0  0  0  0  0  0  0  0  0  0
   -3.6941   -3.9425   -1.7936 C   0  0  0  0  0  0  0  0  0  0  0  0
   -3.4471   -3.8057   -3.1769 C   0  0  0  0  0  0  0  0  0  0  0  0
    2.1001   -1.7341   -2.5307 N   0  0  0  0  0  0  0  0  0  0  0  0
    1.9951   -1.2104   -3.8403 C   0  0  2  0  0  0  0  0  0  0  0  0
    1.1863   -2.2029   -4.6082 C   0  0  0  0  0  0  0  0  0  0  0  0
    1.7400   -3.2204   -5.0888 O   0  0  0  0  0  0  0  0  0  0  0  0
    3.4276   -0.8669   -4.3652 C   0  0  1  0  0  0  0  0  0  0  0  0
    3.3239   -0.2768   -5.7952 C   0  0  0  0  0  0  0  0  0  0  0  0
    4.1975    0.1024   -3.4084 C   0  0  0  0  0  0  0  0  0  0  0  0
    1.1759   -1.5799   -1.5417 C   0  0  0  0  0  0  0  0  0  0  0  0
    0.1575   -0.8559   -1.7081 O   0  0  0  0  0  0  0  0  0  0  0  0
    1.3516   -2.3753   -0.3023 C   0  0  2  0  0  0  0  0  0  0  0  0
    0.1640   -3.3646   -0.1830 C   0  0  1  0  0  0  0  0  0  0  0  0
    1.5130   -1.4145    0.9102 C   0  0  1  0  0  0  0  0  0  0  0  0
    0.5083   -2.9948    4.9451 C   0  0  0  0  0  0  0  0  0  0  0  0
    0.1935   -3.0328    3.4097 C   0  0  1  0  0  0  0  0  0  0  0  0
   -1.0044   -2.0883    3.0702 C   0  0  0  0  0  0  0  0  0  0  0  0
   -0.1600   -4.5797    3.2865 C   0  0  0  0  0  0  0  0  0  0  0  0
   -0.4662   -7.6963   -3.2479 H   0  0  0  0  0  0  0  0  0  0  0  0
   -1.3201   -5.5895   -3.8839 H   0  0  0  0  0  0  0  0  0  0  0  0
   -0.8523   -3.5968   -2.5654 H   0  0  0  0  0  0  0  0  0  0  0  0
    0.8816   -9.0700   -1.8021 H   0  0  0  0  0  0  0  0  0  0  0  0
    2.2029   -9.3484    0.1667 H   0  0  0  0  0  0  0  0  0  0  0  0
    2.6307   -7.4702    1.6416 H   0  0  0  0  0  0  0  0  0  0  0  0
    1.8707   -5.2365    1.0558 H   0  0  0  0  0  0  0  0  0  0  0  0
   -0.9537   -1.4414   -8.4368 H   0  0  0  0  0  0  0  0  0  0  0  0
   -1.5764   -3.3522   -7.5624 H   0  0  0  0  0  0  0  0  0  0  0  0
    0.1172   -2.9960   -7.1673 H   0  0  0  0  0  0  0  0  0  0  0  0
   -0.5667   -1.2771   -4.2380 H   0  0  0  0  0  0  0  0  0  0  0  0
   -1.1507   -3.8472   -5.2228 H   0  0  0  0  0  0  0  0  0  0  0  0
   -3.4069   -2.9933   -5.7889 H   0  0  0  0  0  0  0  0  0  0  0  0
   -2.8793   -1.3542   -5.4905 H   0  0  0  0  0  0  0  0  0  0  0  0
   -3.3525   -0.4437   -3.3297 H   0  0  0  0  0  0  0  0  0  0  0  0
   -3.8831   -0.6930   -0.9873 H   0  0  0  0  0  0  0  0  0  0  0  0
   -3.9637   -2.9018    0.0311 H   0  0  0  0  0  0  0  0  0  0  0  0
   -3.7919   -4.8721   -1.3791 H   0  0  0  0  0  0  0  0  0  0  0  0
   -3.4223   -4.6517   -3.7571 H   0  0  0  0  0  0  0  0  0  0  0  0
    2.8756   -2.2814   -2.3217 H   0  0  0  0  0  0  0  0  0  0  0  0
    1.4635   -0.2570   -3.8284 H   0  0  0  0  0  0  0  0  0  0  0  0
    4.0114   -1.7882   -4.4180 H   0  0  0  0  0  0  0  0  0  0  0  0
    4.3139   -0.0560   -6.1912 H   0  0  0  0  0  0  0  0  0  0  0  0
    2.7331    0.6415   -5.7835 H   0  0  0  0  0  0  0  0  0  0  0  0
    2.8382   -0.9909   -6.4635 H   0  0  0  0  0  0  0  0  0  0  0  0
    5.1913    0.3234   -3.8029 H   0  0  0  0  0  0  0  0  0  0  0  0
    3.6550    1.0420   -3.2855 H   0  0  0  0  0  0  0  0  0  0  0  0
    4.3314   -0.3439   -2.4191 H   0  0  0  0  0  0  0  0  0  0  0  0
    2.2825   -2.9365   -0.3768 H   0  0  0  0  0  0  0  0  0  0  0  0
   -0.7347   -2.7781   -0.3413 H   0  0  0  0  0  0  0  0  0  0  0  0
    0.0499   -3.7006    0.8001 H   0  0  0  0  0  0  0  0  0  0  0  0
    0.7162   -0.6530    0.9616 H   0  0  0  0  0  0  0  0  0  0  0  0
    2.4435   -0.8737    0.7481 H   0  0  0  0  0  0  0  0  0  0  0  0
   -0.2968   -3.3897    5.5809 H   0  0  0  0  0  0  0  0  0  0  0  0
    0.6931   -1.9768    5.2770 H   0  0  0  0  0  0  0  0  0  0  0  0
    1.4035   -3.5903    5.1569 H   0  0  0  0  0  0  0  0  0  0  0  0
   -1.9583   -2.4527    3.4654 H   0  0  0  0  0  0  0  0  0  0  0  0
   -1.0987   -1.9472    1.9884 H   0  0  0  0  0  0  0  0  0  0  0  0
   -0.8076   -1.1152    3.5282 H   0  0  0  0  0  0  0  0  0  0  0  0
   -1.0899   -4.7797    3.8050 H   0  0  0  0  0  0  0  0  0  0  0  0
   -0.3215   -5.0169    2.3062 H   0  0  0  0  0  0  0  0  0  0  0  0
    0.6528   -5.1444    3.7433 H   0  0  0  0  0  0  0  0  0  0  0  0
  1 38  1  0  0  0  0
  2  1  2  0  0  0  0
  3  1  2  0  0  0  0
  4  5  1  0  0  0  0
  5  6  2  0  0  0  0
  5 42  1  0  0  0  0
  6 43  1  0  0  0  0
  7 35  1  0  0  0  0
  7  6  1  0  0  0  0
  8  7  2  0  0  0  0
  9  8  1  0  0  0  0
  9  4  2  0  0  0  0
 10  9  1  0  0  0  0
 11 12  1  0  0  0  0
 11 10  2  0  0  0  0
 12 13  2  0  0  0  0
 13  8  1  0  0  0  0
 15 14  1  0  0  0  0
 15 17  1  0  0  0  0
 15 49  1  0  0  0  0
 16 51  1  0  0  0  0
 16 27  1  0  0  0  0
 17 52  1  0  0  0  0
 17 16  1  0  0  0  0
 18 19  1  0  0  0  0
 18 54  1  0  0  0  0
 18 17  1  0  0  0  0
 19 20  1  0  0  0  0
 20 21  2  0  0  0  0
 20 55  1  0  0  0  0
 21 56  1  0  0  0  0
 22 57  1  0  0  0  0
 22 21  1  0  0  0  0
 23 22  2  0  0  0  0
 24 23  1  0  0  0  0
 24 19  2  0  0  0  0
 25 60  1  0  0  0  0
 26 25  1  0  0  0  0
 26 61  1  0  0  0  0
 26 29  1  0  0  0  0
 27 26  1  0  0  0  0
 28 27  2  0  0  0  0
 29 31  1  0  0  0  0
 30 29  1  0  0  0  0
 30 65  1  0  0  0  0
 30 63  1  0  0  0  0
 31 66  1  0  0  0  0
 31 68  1  0  0  0  0
 31 67  1  0  0  0  0
 32 25  1  0  0  0  0
 34 32  1  0  0  0  0
 33 32  2  0  0  0  0
 34 69  1  0  0  0  0
 34 36  1  0  0  0  0
 35 70  1  0  0  0  0
 35 34  1  0  0  0  0
 36 73  1  0  0  0  0
 36 72  1  0  0  0  0
 36  1  1  0  0  0  0
 37 76  1  0  0  0  0
 38 37  1  0  0  0  0
 38 40  1  0  0  0  0
 38 39  1  0  0  0  0
 39 78  1  0  0  0  0
 40 80  1  0  0  0  0
 41  4  1  0  0  0  0
 44 10  1  0  0  0  0
 45 11  1  0  0  0  0
 46 12  1  0  0  0  0
 47 13  1  0  0  0  0
 48 14  1  0  0  0  0
 50 15  1  0  0  0  0
 53 18  1  0  0  0  0
 58 23  1  0  0  0  0
 59 24  1  0  0  0  0
 62 29  1  0  0  0  0
 64 30  1  0  0  0  0
 71 35  1  0  0  0  0
 74 37  1  0  0  0  0
 75 37  1  0  0  0  0
 77 39  1  0  0  0  0
 79 39  1  0  0  0  0
 81 40  1  0  0  0  0
 82 40  1  0  0  0  0
M  END
