0q4
  Mrv15b2312222511152D          

130130  0  0  1  0            999 V2000
   -6.7929    7.5796    0.0000 N   0  0  0  0  0  4  0  0  0  0  0  0
   -6.7929    8.4046    0.0000 C   0  0  2  0  0  0  0  0  0  0  0  0
   -4.6495    8.8171    0.0000 C   0  0  1  0  0  0  0  0  0  0  0  0
   -2.5061    8.4046    0.0000 C   0  0  1  0  0  0  0  0  0  0  0  0
   -0.3627    8.8171    0.0000 C   0  0  1  0  0  0  0  0  0  0  0  0
    1.7807    8.4046    0.0000 C   0  0  1  0  0  0  0  0  0  0  0  0
    3.9241    8.8171    0.0000 C   0  0  1  0  0  0  0  0  0  0  0  0
    6.0675    8.4046    0.0000 C   0  0  1  0  0  0  0  0  0  0  0  0
   -6.0785    8.8171    0.0000 C   0  0  0  0  0  0  0  0  0  0  0  0
   -6.0785    9.6421    0.0000 O   0  0  0  0  0  0  0  0  0  0  0  0
   -7.5074    8.8171    0.0000 C   0  0  0  0  0  0  0  0  0  0  0  0
   -4.6495    9.6421    0.0000 C   0  0  0  0  0  0  0  0  0  0  0  0
   -2.5061    7.5796    0.0000 C   0  0  0  0  0  0  0  0  0  0  0  0
   -0.3627    9.6421    0.0000 C   0  0  0  0  0  0  0  0  0  0  0  0
    1.7807    7.5796    0.0000 C   0  0  0  0  0  0  0  0  0  0  0  0
    3.9241    9.6421    0.0000 C   0  0  0  0  0  0  0  0  0  0  0  0
    6.7820    8.8171    0.0000 C   0  0  0  0  0  0  0  0  0  0  0  0
   -8.2219    8.4046    0.0000 C   0  0  0  0  0  0  0  0  0  0  0  0
   -3.9351   10.0546    0.0000 C   0  0  0  0  0  0  0  0  0  0  0  0
   -5.3640   10.0546    0.0000 C   0  0  0  0  0  0  0  0  0  0  0  0
   -1.7916    7.1671    0.0000 C   0  0  0  0  0  0  0  0  0  0  0  0
    0.3518   10.0546    0.0000 C   0  0  0  0  0  0  0  0  0  0  0  0
    1.0662    7.1671    0.0000 C   0  0  0  0  0  0  0  0  0  0  0  0
    7.4965    8.4046    0.0000 C   0  0  0  0  0  0  0  0  0  0  0  0
   -8.9364    8.8171    0.0000 C   0  0  0  0  0  0  0  0  0  0  0  0
    1.0662    9.6421    0.0000 C   0  0  0  0  0  0  0  0  0  0  0  0
   -1.7916    6.3421    0.0000 C   0  0  0  0  0  0  0  0  0  0  0  0
    0.3518   10.8796    0.0000 C   0  0  0  0  0  0  0  0  0  0  0  0
   -1.0772    7.5796    0.0000 C   0  0  0  0  0  0  0  0  0  0  0  0
    1.0662    6.3421    0.0000 C   0  0  0  0  0  0  0  0  0  0  0  0
    8.2109    8.8171    0.0000 C   0  0  0  0  0  0  0  0  0  0  0  0
    8.9254    8.4046    0.0000 C   0  0  0  0  0  0  0  0  0  0  0  0
    1.7807   10.0546    0.0000 C   0  0  0  0  0  0  0  0  0  0  0  0
    1.0662   11.2921    0.0000 C   0  0  0  0  0  0  0  0  0  0  0  0
   -9.6508    8.4046    0.0000 N   0  0  0  0  0  0  0  0  0  0  0  0
    1.7807    5.9296    0.0000 O   0  0  0  0  0  0  0  0  0  0  0  0
    0.3518    5.9296    0.0000 O   0  0  0  0  0  0  0  0  0  0  0  0
  -10.3653    8.8171    0.0000 C   0  0  0  0  0  0  0  0  0  0  0  0
    1.7807   10.8796    0.0000 C   0  0  0  0  0  0  0  0  0  0  0  0
  -11.0798    8.4046    0.0000 N   0  0  0  0  0  4  0  0  0  0  0  0
  -10.3653    9.6421    0.0000 N   0  0  0  0  0  0  0  0  0  0  0  0
   -3.9351    8.4046    0.0000 C   0  0  0  0  0  0  0  0  0  0  0  0
   -5.3640    8.4046    0.0000 N   0  0  0  0  0  0  0  0  0  0  0  0
   -3.9351    7.5796    0.0000 O   0  0  0  0  0  0  0  0  0  0  0  0
   -1.7916    8.8171    0.0000 C   0  0  0  0  0  0  0  0  0  0  0  0
   -3.2206    8.8171    0.0000 N   0  0  0  0  0  0  0  0  0  0  0  0
    0.3518    7.5796    0.0000 O   0  0  0  0  0  0  0  0  0  0  0  0
    0.3518    8.4046    0.0000 C   0  0  0  0  0  0  0  0  0  0  0  0
   -1.0772    8.4046    0.0000 N   0  0  0  0  0  0  0  0  0  0  0  0
    2.4952    9.6421    0.0000 O   0  0  0  0  0  0  0  0  0  0  0  0
    2.4952    8.8171    0.0000 C   0  0  0  0  0  0  0  0  0  0  0  0
    1.0662    8.8171    0.0000 N   0  0  0  0  0  0  0  0  0  0  0  0
    4.6386    7.5796    0.0000 O   0  0  0  0  0  0  0  0  0  0  0  0
    4.6386    8.4046    0.0000 C   0  0  0  0  0  0  0  0  0  0  0  0
    3.2096    8.4046    0.0000 N   0  0  0  0  0  0  0  0  0  0  0  0
    5.3531    7.1671    0.0000 O   0  0  0  0  0  0  0  0  0  0  0  0
    6.0675    7.5796    0.0000 C   0  0  0  0  0  0  0  0  0  0  0  0
    5.3531    8.8171    0.0000 N   0  0  0  0  0  0  0  0  0  0  0  0
    6.7820    7.1671    0.0000 N   0  0  0  0  0  0  0  0  0  0  0  0
   -6.7929    6.7546    0.0000 H   0  0  0  0  0  0  0  0  0  0  0  0
   -2.8081    9.5316    0.0000 H   0  0  0  0  0  0  0  0  0  0  0  0
   -5.9679    7.5796    0.0000 H   0  0  0  0  0  0  0  0  0  0  0  0
  -10.0858    7.7036    0.0000 H   0  0  0  0  0  0  0  0  0  0  0  0
  -11.7942    8.8171    0.0000 H   0  0  0  0  0  0  0  0  0  0  0  0
  -11.0798    7.5796    0.0000 H   0  0  0  0  0  0  0  0  0  0  0  0
   -9.6508   10.0546    0.0000 H   0  0  0  0  0  0  0  0  0  0  0  0
  -11.0798   10.0546    0.0000 H   0  0  0  0  0  0  0  0  0  0  0  0
   -5.7765    7.6901    0.0000 H   0  0  0  0  0  0  0  0  0  0  0  0
   -7.6179    7.5796    0.0000 H   0  0  0  0  0  0  0  0  0  0  0  0
   -1.0772    9.2296    0.0000 H   0  0  0  0  0  0  0  0  0  0  0  0
    0.3518    9.2296    0.0000 H   0  0  0  0  0  0  0  0  0  0  0  0
    3.2096    7.5796    0.0000 H   0  0  0  0  0  0  0  0  0  0  0  0
    5.3531    9.6421    0.0000 H   0  0  0  0  0  0  0  0  0  0  0  0
    7.1234    6.4160    0.0000 H   0  0  0  0  0  0  0  0  0  0  0  0
    6.3936    6.4392    0.0000 H   0  0  0  0  0  0  0  0  0  0  0  0
   -7.5074    7.9921    0.0000 H   0  0  0  0  0  0  0  0  0  0  0  0
   -4.6495    7.9921    0.0000 H   0  0  0  0  0  0  0  0  0  0  0  0
   -1.7916    7.9921    0.0000 H   0  0  0  0  0  0  0  0  0  0  0  0
   -0.3627    7.9921    0.0000 H   0  0  0  0  0  0  0  0  0  0  0  0
    2.4952    7.9921    0.0000 H   0  0  0  0  0  0  0  0  0  0  0  0
    3.9241    7.9921    0.0000 H   0  0  0  0  0  0  0  0  0  0  0  0
    6.7820    7.9921    0.0000 H   0  0  0  0  0  0  0  0  0  0  0  0
   -7.1372    9.5544    0.0000 H   0  0  0  0  0  0  0  0  0  0  0  0
   -7.8777    9.5544    0.0000 H   0  0  0  0  0  0  0  0  0  0  0  0
   -3.9351    9.2296    0.0000 H   0  0  0  0  0  0  0  0  0  0  0  0
   -3.3297    7.5316    0.0000 H   0  0  0  0  0  0  0  0  0  0  0  0
   -2.9595    6.8903    0.0000 H   0  0  0  0  0  0  0  0  0  0  0  0
   -0.8161   10.3314    0.0000 H   0  0  0  0  0  0  0  0  0  0  0  0
   -1.1863    9.6901    0.0000 H   0  0  0  0  0  0  0  0  0  0  0  0
    1.9240    6.7671    0.0000 H   0  0  0  0  0  0  0  0  0  0  0  0
    2.4127    7.0493    0.0000 H   0  0  0  0  0  0  0  0  0  0  0  0
    4.7491    9.6421    0.0000 H   0  0  0  0  0  0  0  0  0  0  0  0
    3.9241   10.4671    0.0000 H   0  0  0  0  0  0  0  0  0  0  0  0
    3.0991    9.6421    0.0000 H   0  0  0  0  0  0  0  0  0  0  0  0
    7.1523    9.5544    0.0000 H   0  0  0  0  0  0  0  0  0  0  0  0
    6.4117    9.5544    0.0000 H   0  0  0  0  0  0  0  0  0  0  0  0
   -8.8539    7.8743    0.0000 H   0  0  0  0  0  0  0  0  0  0  0  0
   -8.3651    7.5921    0.0000 H   0  0  0  0  0  0  0  0  0  0  0  0
   -3.1382    9.8411    0.0000 H   0  0  0  0  0  0  0  0  0  0  0  0
   -3.5226   10.7691    0.0000 H   0  0  0  0  0  0  0  0  0  0  0  0
   -4.5184   10.6380    0.0000 H   0  0  0  0  0  0  0  0  0  0  0  0
   -4.6495   10.4671    0.0000 H   0  0  0  0  0  0  0  0  0  0  0  0
   -5.3640   10.8796    0.0000 H   0  0  0  0  0  0  0  0  0  0  0  0
   -6.0785   10.4671    0.0000 H   0  0  0  0  0  0  0  0  0  0  0  0
   -2.5061    6.7546    0.0000 H   0  0  0  0  0  0  0  0  0  0  0  0
    1.0662    7.9921    0.0000 H   0  0  0  0  0  0  0  0  0  0  0  0
    0.3518    6.7546    0.0000 H   0  0  0  0  0  0  0  0  0  0  0  0
    7.6397    7.5921    0.0000 H   0  0  0  0  0  0  0  0  0  0  0  0
    8.1285    7.8743    0.0000 H   0  0  0  0  0  0  0  0  0  0  0  0
   -8.5661    9.5544    0.0000 H   0  0  0  0  0  0  0  0  0  0  0  0
   -9.3066    9.5544    0.0000 H   0  0  0  0  0  0  0  0  0  0  0  0
    1.7807    9.2296    0.0000 H   0  0  0  0  0  0  0  0  0  0  0  0
   -2.3750    5.7587    0.0000 H   0  0  0  0  0  0  0  0  0  0  0  0
   -1.3791    5.6276    0.0000 H   0  0  0  0  0  0  0  0  0  0  0  0
   -0.9948    6.5556    0.0000 H   0  0  0  0  0  0  0  0  0  0  0  0
   -0.3627   11.2921    0.0000 H   0  0  0  0  0  0  0  0  0  0  0  0
   -1.2907    6.7827    0.0000 H   0  0  0  0  0  0  0  0  0  0  0  0
   -0.6647    6.8651    0.0000 H   0  0  0  0  0  0  0  0  0  0  0  0
   -0.2803    7.3661    0.0000 H   0  0  0  0  0  0  0  0  0  0  0  0
    8.5812    9.5544    0.0000 H   0  0  0  0  0  0  0  0  0  0  0  0
    7.8407    9.5544    0.0000 H   0  0  0  0  0  0  0  0  0  0  0  0
    9.1767    7.6188    0.0000 H   0  0  0  0  0  0  0  0  0  0  0  0
    9.7500    8.4308    0.0000 H   0  0  0  0  0  0  0  0  0  0  0  0
    9.1263    9.2048    0.0000 H   0  0  0  0  0  0  0  0  0  0  0  0
    2.4952   10.4671    0.0000 H   0  0  0  0  0  0  0  0  0  0  0  0
    1.0662   12.1171    0.0000 H   0  0  0  0  0  0  0  0  0  0  0  0
    2.1313    5.1828    0.0000 H   0  0  0  0  0  0  0  0  0  0  0  0
    2.1932   11.5941    0.0000 H   0  0  0  0  0  0  0  0  0  0  0  0
   -1.4214    9.5544    0.0000 H   0  0  0  0  0  0  0  0  0  0  0  0
   -2.1619    9.5544    0.0000 H   0  0  0  0  0  0  0  0  0  0  0  0
  1 69  1  0  0  0  0
  1 60  1  0  0  0  0
  1  2  1  0  0  0  0
  2 11  1  1  0  0  0
  2 76  1  6  0  0  0
  3 43  1  1  0  0  0
  3 42  1  0  0  0  0
  3 77  1  6  0  0  0
  4 13  1  0  0  0  0
  4 78  1  1  0  0  0
  5 49  1  1  0  0  0
  5 48  1  0  0  0  0
  5 79  1  6  0  0  0
  6 15  1  0  0  0  0
  6 80  1  1  0  0  0
  7 55  1  0  0  0  0
  7 54  1  0  0  0  0
  7 81  1  6  0  0  0
  8 17  1  0  0  0  0
  8 82  1  6  0  0  0
  9 10  2  0  0  0  0
  9  2  1  0  0  0  0
 11 18  1  0  0  0  0
 11 83  1  0  0  0  0
 11 84  1  0  0  0  0
 12  3  1  0  0  0  0
 12 85  1  0  0  0  0
 13 21  1  0  0  0  0
 13 86  1  0  0  0  0
 13 87  1  0  0  0  0
 14  5  1  0  0  0  0
 14 88  1  0  0  0  0
 14 89  1  0  0  0  0
 15 23  1  0  0  0  0
 15 90  1  0  0  0  0
 15 91  1  0  0  0  0
  7 16  1  6  0  0  0
 16 92  1  0  0  0  0
 16 93  1  0  0  0  0
 16 94  1  0  0  0  0
 17 24  1  0  0  0  0
 17 95  1  0  0  0  0
 17 96  1  0  0  0  0
 18 25  1  0  0  0  0
 18 97  1  0  0  0  0
 18 98  1  0  0  0  0
 19 12  1  0  0  0  0
 19 99  1  0  0  0  0
 19100  1  0  0  0  0
 19101  1  0  0  0  0
 20 12  1  0  0  0  0
 20102  1  0  0  0  0
 20103  1  0  0  0  0
 20104  1  0  0  0  0
 21 29  1  0  0  0  0
 21105  1  0  0  0  0
 22 14  1  0  0  0  0
 23 30  1  0  0  0  0
 23106  1  0  0  0  0
 23107  1  0  0  0  0
 24 31  1  0  0  0  0
 24108  1  0  0  0  0
 24109  1  0  0  0  0
 25 35  1  0  0  0  0
 25110  1  0  0  0  0
 25111  1  0  0  0  0
 26 22  1  0  0  0  0
 26112  1  0  0  0  0
 27 21  1  0  0  0  0
 27113  1  0  0  0  0
 27114  1  0  0  0  0
 27115  1  0  0  0  0
 28 22  2  0  0  0  0
 28116  1  0  0  0  0
 29117  1  0  0  0  0
 29118  1  0  0  0  0
 29119  1  0  0  0  0
 30 36  1  0  0  0  0
 31 32  1  0  0  0  0
 31120  1  0  0  0  0
 31121  1  0  0  0  0
 32122  1  0  0  0  0
 32123  1  0  0  0  0
 32124  1  0  0  0  0
 33 26  2  3  0  0  0
 33125  1  0  0  0  0
 34 28  1  0  0  0  0
 34126  1  0  0  0  0
 35 63  1  0  0  0  0
 36127  1  0  0  0  0
 37 30  2  0  0  0  0
 38 41  1  0  0  0  0
 38 35  1  0  0  0  0
 39 34  2  0  0  0  0
 39 33  1  0  0  0  0
 39128  1  0  0  0  0
 40 38  2  0  0  0  0
 41 66  1  0  0  0  0
 42 46  1  0  0  0  0
 42 44  2  0  0  0  0
 43  9  1  0  0  0  0
 45  4  1  0  0  0  0
 45129  1  0  0  0  0
 45130  1  0  0  0  0
  4 46  1  1  0  0  0
 48 47  2  0  0  0  0
 48 52  1  0  0  0  0
 49 45  1  0  0  0  0
 50 51  2  0  0  0  0
 51  6  1  0  0  0  0
  6 52  1  1  0  0  0
 54 58  1  0  0  0  0
 54 53  2  0  0  0  0
 55 72  1  0  0  0  0
 55 51  1  0  0  0  0
 56 57  2  0  0  0  0
 57 59  1  0  0  0  0
 57  8  1  0  0  0  0
  8 58  1  6  0  0  0
 59 75  1  0  0  0  0
 61 46  1  0  0  0  0
 62  1  1  0  0  0  0
 64 40  1  0  0  0  0
 65 40  1  0  0  0  0
 67 41  1  0  0  0  0
 68 43  1  0  0  0  0
 70 49  1  0  0  0  0
 71 52  1  0  0  0  0
 73 58  1  0  0  0  0
 74 59  1  0  0  0  0
M  END
