lig
 OpenBabel12222511163D

130130  0  0  1  0  0  0  0  0999 V2000
    9.2520   16.6690   32.6950 N   0  0  0  0  0  4  0  0  0  0  0  0
    8.2130   16.4200   33.7400 C   0  0  2  0  0  0  0  0  0  0  0  0
    4.9000   16.9020   31.7980 C   0  0  1  0  0  0  0  0  0  0  0  0
    1.6810   17.2970   33.7950 C   0  0  1  0  0  0  0  0  0  0  0  0
   -1.4570   17.5240   31.6410 C   0  0  1  0  0  0  0  0  0  0  0  0
   -4.6350   16.4760   33.5530 C   0  0  1  0  0  0  0  0  0  0  0  0
   -8.1140   15.5730   32.3730 C   0  0  1  0  0  0  0  0  0  0  0  0
  -11.4340   14.3420   33.8150 C   0  0  1  0  0  0  0  0  0  0  0  0
    6.8670   17.0690   33.2820 C   0  0  0  0  0  0  0  0  0  0  0  0
    6.5300   18.1880   33.7130 O   0  0  0  0  0  0  0  0  0  0  0  0
    8.7130   16.9670   35.0830 C   0  0  0  0  0  0  0  0  0  0  0  0
    4.7710   16.4540   30.2520 C   0  0  0  0  0  0  0  0  0  0  0  0
    2.0010   17.8020   35.2230 C   0  0  0  0  0  0  0  0  0  0  0  0
   -1.3090   17.3340   30.1020 C   0  0  0  0  0  0  0  0  0  0  0  0
   -4.5490   16.8850   35.0510 C   0  0  0  0  0  0  0  0  0  0  0  0
   -8.1030   15.3300   30.8760 C   0  0  0  0  0  0  0  0  0  0  0  0
  -12.6180   15.3090   34.0760 C   0  0  0  0  0  0  0  0  0  0  0  0
    8.5030   16.0570   36.3420 C   0  0  0  0  0  0  0  0  0  0  0  0
    5.7290   17.2370   29.3510 C   0  0  0  0  0  0  0  0  0  0  0  0
    5.0930   14.9550   30.0900 C   0  0  0  0  0  0  0  0  0  0  0  0
    1.3200   17.0090   36.3740 C   0  0  0  0  0  0  0  0  0  0  0  0
   -2.5610   17.0200   29.3820 C   0  0  0  0  0  0  0  0  0  0  0  0
   -5.2010   15.9630   36.0630 C   0  0  0  0  0  0  0  0  0  0  0  0
  -13.4200   15.1320   35.4130 C   0  0  0  0  0  0  0  0  0  0  0  0
    7.1110   16.1800   37.0560 C   0  0  0  0  0  0  0  0  0  0  0  0
   -2.8830   15.7090   29.0590 C   0  0  0  0  0  0  0  0  0  0  0  0
    1.3130   15.4990   36.1390 C   0  0  0  0  0  0  0  0  0  0  0  0
   -3.4540   18.0310   29.0440 C   0  0  0  0  0  0  0  0  0  0  0  0
    2.0040   17.3190   37.6930 C   0  0  0  0  0  0  0  0  0  0  0  0
   -6.4320   16.5840   36.7410 C   0  0  0  0  0  0  0  0  0  0  0  0
  -12.8140   14.0660   36.4090 C   0  0  0  0  0  0  0  0  0  0  0  0
  -13.5900   14.0350   37.7100 C   0  0  0  0  0  0  0  0  0  0  0  0
   -4.1000   15.3950   28.4110 C   0  0  0  0  0  0  0  0  0  0  0  0
   -4.6860   17.7330   28.3860 C   0  0  0  0  0  0  0  0  0  0  0  0
    6.4860   14.9000   37.4140 N   0  0  0  0  0  0  0  0  0  0  0  0
   -6.8270   16.1020   37.8190 O   0  0  0  0  0  0  0  0  0  0  0  0
   -7.0190   17.5630   36.2080 O   0  0  0  0  0  0  0  0  0  0  0  0
    5.4640   14.3430   36.7600 C   0  0  0  0  0  0  0  0  0  0  0  0
   -5.0020   16.4110   28.0760 C   0  0  0  0  0  0  0  0  0  0  0  0
    4.9630   14.9530   35.6980 N   0  0  0  0  0  4  0  0  0  0  0  0
    4.8610   13.2430   37.2350 N   0  0  0  0  0  0  0  0  0  0  0  0
    3.6730   16.5280   32.6690 C   0  0  0  0  0  0  0  0  0  0  0  0
    6.1510   16.3970   32.3660 N   0  0  0  0  0  0  0  0  0  0  0  0
    3.4290   15.3770   33.0060 O   0  0  0  0  0  0  0  0  0  0  0  0
    0.3450   17.8230   33.2860 C   0  0  0  0  0  0  0  0  0  0  0  0
    2.8290   17.5100   32.9350 N   0  0  0  0  0  0  0  0  0  0  0  0
   -2.2260   15.4230   32.5690 O   0  0  0  0  0  0  0  0  0  0  0  0
   -2.4920   16.6080   32.3510 C   0  0  0  0  0  0  0  0  0  0  0  0
   -0.1620   17.1890   32.2440 N   0  0  0  0  0  0  0  0  0  0  0  0
   -6.6060   17.7670   32.9880 O   0  0  0  0  0  0  0  0  0  0  0  0
   -6.0720   16.6570   33.0530 C   0  0  0  0  0  0  0  0  0  0  0  0
   -3.6040   17.1930   32.7980 N   0  0  0  0  0  0  0  0  0  0  0  0
   -8.8120   13.4240   33.2870 O   0  0  0  0  0  0  0  0  0  0  0  0
   -9.1120   14.5940   33.0420 C   0  0  0  0  0  0  0  0  0  0  0  0
   -6.7490   15.5390   32.8520 N   0  0  0  0  0  0  0  0  0  0  0  0
  -11.9720   13.6860   31.5310 O   0  0  0  0  0  0  0  0  0  0  0  0
  -11.8190   13.3190   32.7330 C   0  0  0  0  0  0  0  0  0  0  0  0
  -10.3170   15.1040   33.2720 N   0  0  0  0  0  0  0  0  0  0  0  0
  -12.0000   12.1390   33.1210 N   0  0  0  0  0  0  0  0  0  0  0  0
    9.7890   17.5240   32.8940 H   0  0  0  0  0  0  0  0  0  0  0  0
    2.9990   18.4110   32.5780 H   0  0  0  0  0  0  0  0  0  0  0  0
    8.8120   16.7620   31.7650 H   0  0  0  0  0  0  0  0  0  0  0  0
    6.8370   14.4090   38.1900 H   0  0  0  0  0  0  0  0  0  0  0  0
    5.3500   15.8200   35.3880 H   0  0  0  0  0  0  0  0  0  0  0  0
    4.1960   14.5440   35.2010 H   0  0  0  0  0  0  0  0  0  0  0  0
    5.1710   12.8230   38.0860 H   0  0  0  0  0  0  0  0  0  0  0  0
    4.0940   12.8450   36.7280 H   0  0  0  0  0  0  0  0  0  0  0  0
    6.4280   15.5100   32.0510 H   0  0  0  0  0  0  0  0  0  0  0  0
    9.8760   15.8230   32.7090 H   0  0  0  0  0  0  0  0  0  0  0  0
    0.3460   16.4450   31.8690 H   0  0  0  0  0  0  0  0  0  0  0  0
   -3.7760   18.1380   32.5940 H   0  0  0  0  0  0  0  0  0  0  0  0
   -6.3300   14.6660   33.0210 H   0  0  0  0  0  0  0  0  0  0  0  0
  -10.4810   16.0260   33.0110 H   0  0  0  0  0  0  0  0  0  0  0  0
  -12.2550   11.4610   32.4030 H   0  0  0  0  0  0  0  0  0  0  0  0
  -11.8770   11.8420   34.0890 H   0  0  0  0  0  0  0  0  0  0  0  0
    8.0345   15.3731   33.8702 H   0  0  0  0  0  0  0  0  0  0  0  0
    4.9206   17.9718   31.8074 H   0  0  0  0  0  0  0  0  0  0  0  0
    1.5241   16.2386   33.8012 H   0  0  0  0  0  0  0  0  0  0  0  0
   -1.7912   18.5323   31.7698 H   0  0  0  0  0  0  0  0  0  0  0  0
   -4.4215   15.4376   33.4079 H   0  0  0  0  0  0  0  0  0  0  0  0
   -8.4787   16.5429   32.6399 H   0  0  0  0  0  0  0  0  0  0  0  0
  -11.1837   13.8547   34.7341 H   0  0  0  0  0  0  0  0  0  0  0  0
    8.2060   17.8916   35.2643 H   0  0  0  0  0  0  0  0  0  0  0  0
    9.7741   17.0499   34.9727 H   0  0  0  0  0  0  0  0  0  0  0  0
    3.7614   16.6563   29.9610 H   0  0  0  0  0  0  0  0  0  0  0  0
    1.6852   18.8220   35.2918 H   0  0  0  0  0  0  0  0  0  0  0  0
    3.0547   17.6708   35.3551 H   0  0  0  0  0  0  0  0  0  0  0  0
   -0.9108   18.2394   29.6937 H   0  0  0  0  0  0  0  0  0  0  0  0
   -0.6697   16.4865   29.9682 H   0  0  0  0  0  0  0  0  0  0  0  0
   -5.0093   17.8460   35.1486 H   0  0  0  0  0  0  0  0  0  0  0  0
   -3.5052   16.8541   35.2843 H   0  0  0  0  0  0  0  0  0  0  0  0
   -7.7294   14.3473   30.6769 H   0  0  0  0  0  0  0  0  0  0  0  0
   -7.4735   16.0537   30.4018 H   0  0  0  0  0  0  0  0  0  0  0  0
   -9.0983   15.4176   30.4931 H   0  0  0  0  0  0  0  0  0  0  0  0
  -13.3110   15.1915   33.2692 H   0  0  0  0  0  0  0  0  0  0  0  0
  -12.1664   16.2757   34.1562 H   0  0  0  0  0  0  0  0  0  0  0  0
    9.2601   16.3062   37.0559 H   0  0  0  0  0  0  0  0  0  0  0  0
    8.5543   15.0507   35.9820 H   0  0  0  0  0  0  0  0  0  0  0  0
    6.7384   17.0344   29.6424 H   0  0  0  0  0  0  0  0  0  0  0  0
    5.5333   18.2845   29.4474 H   0  0  0  0  0  0  0  0  0  0  0  0
    5.5850   16.9394   28.3334 H   0  0  0  0  0  0  0  0  0  0  0  0
    6.1052   14.7737   30.3856 H   0  0  0  0  0  0  0  0  0  0  0  0
    4.9640   14.6711   29.0664 H   0  0  0  0  0  0  0  0  0  0  0  0
    4.4332   14.3799   30.7055 H   0  0  0  0  0  0  0  0  0  0  0  0
    0.2983   17.3255   36.4029 H   0  0  0  0  0  0  0  0  0  0  0  0
   -4.4816   15.7232   36.8178 H   0  0  0  0  0  0  0  0  0  0  0  0
   -5.5331   15.0940   35.5344 H   0  0  0  0  0  0  0  0  0  0  0  0
  -14.4164   14.8296   35.1666 H   0  0  0  0  0  0  0  0  0  0  0  0
  -13.3793   16.0748   35.9174 H   0  0  0  0  0  0  0  0  0  0  0  0
    6.4461   16.7031   36.4008 H   0  0  0  0  0  0  0  0  0  0  0  0
    7.2897   16.6953   37.9766 H   0  0  0  0  0  0  0  0  0  0  0  0
   -2.2236   14.9512   29.2956 H   0  0  0  0  0  0  0  0  0  0  0  0
    2.3200   15.1390   36.1030 H   0  0  0  0  0  0  0  0  0  0  0  0
    0.8242   15.2846   35.2116 H   0  0  0  0  0  0  0  0  0  0  0  0
    0.7899   15.0161   36.9378 H   0  0  0  0  0  0  0  0  0  0  0  0
   -3.2231   19.0107   29.2719 H   0  0  0  0  0  0  0  0  0  0  0  0
    3.0237   16.9977   37.6501 H   0  0  0  0  0  0  0  0  0  0  0  0
    1.5010   16.8047   38.4851 H   0  0  0  0  0  0  0  0  0  0  0  0
    1.9695   18.3731   37.8736 H   0  0  0  0  0  0  0  0  0  0  0  0
  -11.7952   14.3196   36.6153 H   0  0  0  0  0  0  0  0  0  0  0  0
  -12.8751   13.1001   35.9528 H   0  0  0  0  0  0  0  0  0  0  0  0
  -13.5383   14.9953   38.1791 H   0  0  0  0  0  0  0  0  0  0  0  0
  -13.1674   13.2974   38.3599 H   0  0  0  0  0  0  0  0  0  0  0  0
  -14.6122   13.7904   37.5098 H   0  0  0  0  0  0  0  0  0  0  0  0
   -4.3237   14.4133   28.1844 H   0  0  0  0  0  0  0  0  0  0  0  0
   -5.3396   18.4931   28.1410 H   0  0  0  0  0  0  0  0  0  0  0  0
   -6.3768   15.3736   38.1994 H   0  0  0  0  0  0  0  0  0  0  0  0
   -5.8915   16.1842   27.6045 H   0  0  0  0  0  0  0  0  0  0  0  0
   -0.3612   17.7557   34.0870 H   0  0  0  0  0  0  0  0  0  0  0  0
    0.5329   18.8231   32.9551 H   0  0  0  0  0  0  0  0  0  0  0  0
  1 69  1  0  0  0  0
  1 60  1  0  0  0  0
  1  2  1  0  0  0  0
  2 11  1  0  0  0  0
  2 76  1  1  0  0  0
  3 43  1  0  0  0  0
  3 42  1  0  0  0  0
  3 77  1  1  0  0  0
  4 13  1  0  0  0  0
  4 78  1  1  0  0  0
  5 49  1  0  0  0  0
  5 48  1  0  0  0  0
  5 79  1  1  0  0  0
  6 15  1  0  0  0  0
  6 80  1  6  0  0  0
  7 55  1  0  0  0  0
  7 54  1  0  0  0  0
  7 81  1  1  0  0  0
  8 17  1  0  0  0  0
  8 82  1  1  0  0  0
  9 10  2  0  0  0  0
  9  2  1  0  0  0  0
 11 18  1  0  0  0  0
 11 83  1  0  0  0  0
 11 84  1  0  0  0  0
 12  3  1  0  0  0  0
 12 85  1  0  0  0  0
 13 21  1  0  0  0  0
 13 86  1  0  0  0  0
 13 87  1  0  0  0  0
 14  5  1  0  0  0  0
 14 88  1  0  0  0  0
 14 89  1  0  0  0  0
 15 23  1  0  0  0  0
 15 90  1  0  0  0  0
 15 91  1  0  0  0  0
 16  7  1  0  0  0  0
 16 92  1  0  0  0  0
 16 93  1  0  0  0  0
 16 94  1  0  0  0  0
 17 24  1  0  0  0  0
 17 95  1  0  0  0  0
 17 96  1  0  0  0  0
 18 25  1  0  0  0  0
 18 97  1  0  0  0  0
 18 98  1  0  0  0  0
 19 12  1  0  0  0  0
 19 99  1  0  0  0  0
 19100  1  0  0  0  0
 19101  1  0  0  0  0
 20 12  1  0  0  0  0
 20102  1  0  0  0  0
 20103  1  0  0  0  0
 20104  1  0  0  0  0
 21 29  1  0  0  0  0
 21105  1  0  0  0  0
 22 14  1  0  0  0  0
 23 30  1  0  0  0  0
 23106  1  0  0  0  0
 23107  1  0  0  0  0
 24 31  1  0  0  0  0
 24108  1  0  0  0  0
 24109  1  0  0  0  0
 25 35  1  0  0  0  0
 25110  1  0  0  0  0
 25111  1  0  0  0  0
 26 22  1  0  0  0  0
 26112  1  0  0  0  0
 27 21  1  0  0  0  0
 27113  1  0  0  0  0
 27114  1  0  0  0  0
 27115  1  0  0  0  0
 28 22  2  0  0  0  0
 28116  1  0  0  0  0
 29117  1  0  0  0  0
 29118  1  0  0  0  0
 29119  1  0  0  0  0
 30 36  1  0  0  0  0
 31 32  1  0  0  0  0
 31120  1  0  0  0  0
 31121  1  0  0  0  0
 32122  1  0  0  0  0
 32123  1  0  0  0  0
 32124  1  0  0  0  0
 33 26  2  0  0  0  0
 33125  1  0  0  0  0
 34 28  1  0  0  0  0
 34126  1  0  0  0  0
 35 63  1  0  0  0  0
 36127  1  0  0  0  0
 37 30  2  0  0  0  0
 38 41  1  0  0  0  0
 38 35  1  0  0  0  0
 39 34  2  0  0  0  0
 39 33  1  0  0  0  0
 39128  1  0  0  0  0
 40 38  2  0  0  0  0
 41 66  1  0  0  0  0
 42 46  1  0  0  0  0
 42 44  2  0  0  0  0
 43  9  1  0  0  0  0
 45  4  1  0  0  0  0
 45129  1  0  0  0  0
 45130  1  0  0  0  0
 46  4  1  0  0  0  0
 48 47  2  0  0  0  0
 48 52  1  0  0  0  0
 49 45  1  0  0  0  0
 50 51  2  0  0  0  0
 51  6  1  0  0  0  0
 52  6  1  0  0  0  0
 54 58  1  0  0  0  0
 54 53  2  0  0  0  0
 55 72  1  0  0  0  0
 55 51  1  0  0  0  0
 56 57  2  0  0  0  0
 57 59  1  0  0  0  0
 57  8  1  0  0  0  0
 58  8  1  0  0  0  0
 59 75  1  0  0  0  0
 61 46  1  0  0  0  0
 62  1  1  0  0  0  0
 64 40  1  0  0  0  0
 65 40  1  0  0  0  0
 67 41  1  0  0  0  0
 68 43  1  0  0  0  0
 70 49  1  0  0  0  0
 71 52  1  0  0  0  0
 73 58  1  0  0  0  0
 74 59  1  0  0  0  0
M  END
