0q4
  Mrv15b2312222511153D          

130130  0  0  1  0            999 V2000
  -12.1847    2.8376   -7.4073 N   0  0  0  0  0  4  0  0  0  0  0  0
  -12.3188    1.3879   -7.5411 C   0  0  2  0  0  0  0  0  0  0  0  0
   -9.2221    0.8767   -5.6403 C   0  0  1  0  0  0  0  0  0  0  0  0
   -9.1554    4.5731   -5.1812 C   0  0  1  0  0  0  0  0  0  0  0  0
  -12.4365    4.5224   -3.3819 C   0  0  1  0  0  0  0  0  0  0  0  0
  -11.5076    7.2935   -1.0718 C   0  0  1  0  0  0  0  0  0  0  0  0
   -8.0420    7.8285    0.2124 C   0  0  1  0  0  0  0  0  0  0  0  0
   -6.7701    6.2112    3.3976 C   0  0  1  0  0  0  0  0  0  0  0  0
  -11.3782    0.7269   -6.6412 C   0  0  0  0  0  0  0  0  0  0  0  0
  -11.8004   -0.0411   -5.7500 O   0  0  0  0  0  0  0  0  0  0  0  0
  -12.0172    0.9789   -8.9843 C   0  0  2  0  0  0  0  0  0  0  0  0
   -7.8271    0.4162   -6.0681 C   0  0  2  0  0  0  0  0  0  0  0  0
   -8.5764    5.5684   -6.1887 C   0  0  1  0  0  0  0  0  0  0  0  0
  -13.0154    3.5271   -2.3744 C   0  0  2  0  0  0  0  0  0  0  0  0
  -11.9992    7.2237    0.3011 C   0  0  2  0  0  0  0  0  0  0  0  0
   -7.4016    9.0963    0.5504 C   0  0  0  0  0  0  0  0  0  0  0  0
   -5.3293    6.0105    3.5227 C   0  0  2  0  0  0  0  0  0  0  0  0
  -13.0030    1.6716   -9.9273 C   0  0  1  0  0  0  0  0  0  0  0  0
   -7.9227   -0.9670   -6.7150 C   0  0  0  0  0  0  0  0  0  0  0  0
   -6.9155    0.3437   -4.8415 C   0  0  0  0  0  0  0  0  0  0  0  0
   -7.1815    5.1079   -6.6165 C   0  0  1  0  0  0  0  0  0  0  0  0
  -13.1066    2.2072   -2.9917 C   0  0  0  0  0  0  0  0  0  0  0  0
  -13.4579    6.7620    0.2977 C   0  0  1  0  0  0  0  0  0  0  0  0
   -4.7693    5.4939    2.1959 C   0  0  1  0  0  0  0  0  0  0  0  0
  -12.7013    1.2626  -11.3705 C   0  0  2  0  0  0  0  0  0  0  0  0
  -14.2614    1.8357   -3.6705 C   0  0  0  0  0  0  0  0  0  0  0  0
   -6.6025    6.1032   -7.6240 C   0  0  0  0  0  0  0  0  0  0  0  0
  -12.0388    1.3221   -2.9007 C   0  0  0  0  0  0  0  0  0  0  0  0
   -6.2699    5.0354   -5.3899 C   0  0  0  0  0  0  0  0  0  0  0  0
  -13.9495    6.6921    1.6706 C   0  0  0  0  0  0  0  0  0  0  0  0
   -3.2595    5.2836    2.3270 C   0  0  2  0  0  0  0  0  0  0  0  0
   -2.6994    4.7671    1.0002 C   0  0  0  0  0  0  0  0  0  0  0  0
  -14.3482    0.5790   -4.2582 C   0  0  0  0  0  0  0  0  0  0  0  0
  -12.1256    0.0654   -3.4884 C   0  0  0  0  0  0  0  0  0  0  0  0
  -13.6098    1.9009  -12.2396 N   0  0  2  0  0  0  0  0  0  0  0  0
  -15.2199    6.3054    1.9139 O   0  0  0  0  0  0  0  0  0  0  0  0
  -13.1942    6.9904    2.6209 O   0  0  0  0  0  0  0  0  0  0  0  0
  -13.3515    1.5508  -13.4752 C   0  0  0  0  0  0  0  0  0  0  0  0
  -13.2803   -0.3061   -4.1672 C   0  0  0  0  0  0  0  0  0  0  0  0
  -14.0573    2.0149  -14.4302 N   0  0  0  0  0  4  0  0  0  0  0  0
  -12.3679    0.7237  -13.7296 N   0  0  2  0  0  0  0  0  0  0  0  0
   -9.1308    2.1966   -5.0230 C   0  0  0  0  0  0  0  0  0  0  0  0
  -10.0622    0.9436   -6.7707 N   0  0  0  0  0  0  0  0  0  0  0  0
   -8.9476    2.2990   -3.7907 O   0  0  0  0  0  0  0  0  0  0  0  0
  -10.5503    5.0335   -4.7534 C   0  0  2  0  0  0  0  0  0  0  0  0
   -9.2435    3.2983   -5.7774 N   0  0  0  0  0  0  0  0  0  0  0  0
  -12.9664    6.8079   -3.2590 O   0  0  0  0  0  0  0  0  0  0  0  0
  -12.3453    5.8424   -2.7646 C   0  0  0  0  0  0  0  0  0  0  0  0
  -11.1035    4.0824   -3.7907 N   0  0  1  0  0  0  0  0  0  0  0  0
   -9.4313    7.8832   -2.1475 O   0  0  0  0  0  0  0  0  0  0  0  0
  -10.0489    7.7552   -1.0683 C   0  0  0  0  0  0  0  0  0  0  0  0
  -11.5957    6.0188   -1.6680 N   0  0  0  0  0  0  0  0  0  0  0  0
   -8.2230    5.6473    1.2252 O   0  0  0  0  0  0  0  0  0  0  0  0
   -7.7634    6.8062    1.3162 C   0  0  0  0  0  0  0  0  0  0  0  0
   -9.4334    8.0223    0.0916 N   0  0  0  0  0  0  0  0  0  0  0  0
   -8.5519    6.9673    4.8361 O   0  0  0  0  0  0  0  0  0  0  0  0
   -7.3301    6.7277    4.7243 C   0  0  0  0  0  0  0  0  0  0  0  0
   -7.0268    7.1533    2.3804 N   0  0  0  0  0  0  0  0  0  0  0  0
   -6.5110    6.9233    5.7666 N   0  0  0  0  0  0  0  0  0  0  0  0
  -12.3862    3.1107   -6.4433 H   0  0  0  0  0  0  0  0  0  0  0  0
   -9.3856    3.2189   -6.7336 H   0  0  0  0  0  0  0  0  0  0  0  0
  -12.8432    3.3002   -8.0372 H   0  0  0  0  0  0  0  0  0  0  0  0
  -13.5207    2.8627  -12.1507 H   0  0  0  0  0  0  0  0  0  0  0  0
  -13.8730    1.7650  -15.3121 H   0  0  0  0  0  0  0  0  0  0  0  0
  -14.7593    2.6052  -14.2485 H   0  0  0  0  0  0  0  0  0  0  0  0
  -12.3134    0.5706  -14.6859 H   0  0  0  0  0  0  0  0  0  0  0  0
  -12.5282   -0.1186  -13.2760 H   0  0  0  0  0  0  0  0  0  0  0  0
   -9.6875    1.1464   -7.6422 H   0  0  0  0  0  0  0  0  0  0  0  0
  -11.2309    3.1151   -7.6477 H   0  0  0  0  0  0  0  0  0  0  0  0
  -10.4946    4.0340   -2.9714 H   0  0  0  0  0  0  0  0  0  0  0  0
  -11.1136    5.2695   -1.2843 H   0  0  0  0  0  0  0  0  0  0  0  0
   -9.9451    8.3490    0.8482 H   0  0  0  0  0  0  0  0  0  0  0  0
   -6.6702    8.0526    2.4510 H   0  0  0  0  0  0  0  0  0  0  0  0
   -5.5629    6.7374    5.6799 H   0  0  0  0  0  0  0  0  0  0  0  0
   -6.8661    7.2508    6.6078 H   0  0  0  0  0  0  0  0  0  0  0  0
  -13.3361    1.0919   -7.2847 H   0  0  0  0  0  0  0  0  0  0  0  0
   -9.6345    0.1676   -4.9226 H   0  0  0  0  0  0  0  0  0  0  0  0
   -8.5059    4.5214   -4.3074 H   0  0  0  0  0  0  0  0  0  0  0  0
  -13.0859    4.5741   -4.2558 H   0  0  0  0  0  0  0  0  0  0  0  0
  -12.1116    8.0021   -1.6384 H   0  0  0  0  0  0  0  0  0  0  0  0
   -7.6430    7.4605   -0.7328 H   0  0  0  0  0  0  0  0  0  0  0  0
   -7.2482    5.2647    3.1453 H   0  0  0  0  0  0  0  0  0  0  0  0
  -12.1172   -0.1019   -9.0841 H   0  0  0  0  0  0  0  0  0  0  0  0
  -11.0000    1.2749   -9.2407 H   0  0  0  0  0  0  0  0  0  0  0  0
   -7.4147    1.1253   -6.7859 H   0  0  0  0  0  0  0  0  0  0  0  0
   -9.2259    5.6201   -7.0626 H   0  0  0  0  0  0  0  0  0  0  0  0
   -8.5083    6.5538   -5.7279 H   0  0  0  0  0  0  0  0  0  0  0  0
  -14.0092    3.8552   -2.0696 H   0  0  0  0  0  0  0  0  0  0  0  0
  -12.3660    3.4754   -1.5005 H   0  0  0  0  0  0  0  0  0  0  0  0
  -11.9311    8.2091    0.7620 H   0  0  0  0  0  0  0  0  0  0  0  0
  -11.3952    6.5150    0.8678 H   0  0  0  0  0  0  0  0  0  0  0  0
   -6.3260    8.9465    0.6438 H   0  0  0  0  0  0  0  0  0  0  0  0
   -7.8006    9.4643    1.4956 H   0  0  0  0  0  0  0  0  0  0  0  0
   -7.6001    9.8246   -0.2360 H   0  0  0  0  0  0  0  0  0  0  0  0
   -5.1308    5.2822    4.3090 H   0  0  0  0  0  0  0  0  0  0  0  0
   -4.8512    6.9570    3.7750 H   0  0  0  0  0  0  0  0  0  0  0  0
  -14.0202    1.3756   -9.6709 H   0  0  0  0  0  0  0  0  0  0  0  0
  -12.9029    2.7524   -9.8275 H   0  0  0  0  0  0  0  0  0  0  0  0
   -6.9289   -1.2950   -7.0198 H   0  0  0  0  0  0  0  0  0  0  0  0
   -8.5721   -0.9153   -7.5889 H   0  0  0  0  0  0  0  0  0  0  0  0
   -8.3352   -1.6760   -5.9973 H   0  0  0  0  0  0  0  0  0  0  0  0
   -5.9217    0.0156   -5.1463 H   0  0  0  0  0  0  0  0  0  0  0  0
   -7.3280   -0.3654   -4.1237 H   0  0  0  0  0  0  0  0  0  0  0  0
   -6.8474    1.3291   -4.3806 H   0  0  0  0  0  0  0  0  0  0  0  0
   -7.2496    4.1225   -7.0774 H   0  0  0  0  0  0  0  0  0  0  0  0
  -14.0619    7.4706   -0.2690 H   0  0  0  0  0  0  0  0  0  0  0  0
  -13.5260    5.7766   -0.1632 H   0  0  0  0  0  0  0  0  0  0  0  0
   -5.2474    4.5474    1.9436 H   0  0  0  0  0  0  0  0  0  0  0  0
   -4.9677    6.2222    1.4095 H   0  0  0  0  0  0  0  0  0  0  0  0
  -12.8013    0.1818  -11.4703 H   0  0  0  0  0  0  0  0  0  0  0  0
  -11.6841    1.5586  -11.6269 H   0  0  0  0  0  0  0  0  0  0  0  0
  -15.0450    2.4852   -3.7373 H   0  0  0  0  0  0  0  0  0  0  0  0
   -5.6088    5.7752   -7.9288 H   0  0  0  0  0  0  0  0  0  0  0  0
   -7.2520    6.1549   -8.4979 H   0  0  0  0  0  0  0  0  0  0  0  0
   -6.5344    7.0887   -7.1632 H   0  0  0  0  0  0  0  0  0  0  0  0
  -11.1914    1.5947   -2.4026 H   0  0  0  0  0  0  0  0  0  0  0  0
   -5.2761    4.7073   -5.6947 H   0  0  0  0  0  0  0  0  0  0  0  0
   -6.6823    4.3263   -4.6721 H   0  0  0  0  0  0  0  0  0  0  0  0
   -6.2018    6.0208   -4.9290 H   0  0  0  0  0  0  0  0  0  0  0  0
   -3.0610    4.5554    3.1133 H   0  0  0  0  0  0  0  0  0  0  0  0
   -2.7813    6.2301    2.5793 H   0  0  0  0  0  0  0  0  0  0  0  0
   -1.6238    4.6173    1.0936 H   0  0  0  0  0  0  0  0  0  0  0  0
   -3.1775    3.8206    0.7479 H   0  0  0  0  0  0  0  0  0  0  0  0
   -2.8979    5.4953    0.2139 H   0  0  0  0  0  0  0  0  0  0  0  0
  -15.1956    0.3064   -4.7563 H   0  0  0  0  0  0  0  0  0  0  0  0
  -11.3420   -0.5841   -3.4216 H   0  0  0  0  0  0  0  0  0  0  0  0
  -15.5499    6.2586    2.8354 H   0  0  0  0  0  0  0  0  0  0  0  0
  -13.3441   -1.2282   -4.5984 H   0  0  0  0  0  0  0  0  0  0  0  0
  -11.1998    5.0852   -5.6273 H   0  0  0  0  0  0  0  0  0  0  0  0
  -10.4822    6.0189   -4.2926 H   0  0  0  0  0  0  0  0  0  0  0  0
  1 69  1  0  0  0  0
  1 60  1  0  0  0  0
  1  2  1  0  0  0  0
  2 11  1  0  0  0  0
  2 76  1  0  0  0  0
  3 43  1  0  0  0  0
  3 42  1  0  0  0  0
  3 77  1  0  0  0  0
  4 13  1  0  0  0  0
  4 78  1  0  0  0  0
  5 49  1  0  0  0  0
  5 48  1  0  0  0  0
  5 79  1  0  0  0  0
  6 15  1  0  0  0  0
  6 80  1  0  0  0  0
  7 55  1  0  0  0  0
  7 54  1  0  0  0  0
  7 81  1  0  0  0  0
  8 17  1  0  0  0  0
  8 82  1  0  0  0  0
  9 10  2  0  0  0  0
  9  2  1  0  0  0  0
 11 18  1  0  0  0  0
 11 83  1  0  0  0  0
 11 84  1  0  0  0  0
 12  3  1  0  0  0  0
 12 85  1  0  0  0  0
 13 21  1  0  0  0  0
 13 86  1  0  0  0  0
 13 87  1  0  0  0  0
 14  5  1  0  0  0  0
 14 88  1  0  0  0  0
 14 89  1  0  0  0  0
 15 23  1  0  0  0  0
 15 90  1  0  0  0  0
 15 91  1  0  0  0  0
  7 16  1  0  0  0  0
 16 92  1  0  0  0  0
 16 93  1  0  0  0  0
 16 94  1  0  0  0  0
 17 24  1  0  0  0  0
 17 95  1  0  0  0  0
 17 96  1  0  0  0  0
 18 25  1  0  0  0  0
 18 97  1  0  0  0  0
 18 98  1  0  0  0  0
 19 12  1  0  0  0  0
 19 99  1  0  0  0  0
 19100  1  0  0  0  0
 19101  1  0  0  0  0
 20 12  1  0  0  0  0
 20102  1  0  0  0  0
 20103  1  0  0  0  0
 20104  1  0  0  0  0
 21 29  1  0  0  0  0
 21105  1  0  0  0  0
 22 14  1  0  0  0  0
 23 30  1  0  0  0  0
 23106  1  0  0  0  0
 23107  1  0  0  0  0
 24 31  1  0  0  0  0
 24108  1  0  0  0  0
 24109  1  0  0  0  0
 25 35  1  0  0  0  0
 25110  1  0  0  0  0
 25111  1  0  0  0  0
 26 22  1  0  0  0  0
 26112  1  0  0  0  0
 27 21  1  0  0  0  0
 27113  1  0  0  0  0
 27114  1  0  0  0  0
 27115  1  0  0  0  0
 28 22  2  0  0  0  0
 28116  1  0  0  0  0
 29117  1  0  0  0  0
 29118  1  0  0  0  0
 29119  1  0  0  0  0
 30 36  1  0  0  0  0
 31 32  1  0  0  0  0
 31120  1  0  0  0  0
 31121  1  0  0  0  0
 32122  1  0  0  0  0
 32123  1  0  0  0  0
 32124  1  0  0  0  0
 33 26  2  0  0  0  0
 33125  1  0  0  0  0
 34 28  1  0  0  0  0
 34126  1  0  0  0  0
 35 63  1  0  0  0  0
 36127  1  0  0  0  0
 37 30  2  0  0  0  0
 38 41  1  0  0  0  0
 38 35  1  0  0  0  0
 39 34  2  0  0  0  0
 39 33  1  0  0  0  0
 39128  1  0  0  0  0
 40 38  2  0  0  0  0
 41 66  1  0  0  0  0
 42 46  1  0  0  0  0
 42 44  2  0  0  0  0
 43  9  1  0  0  0  0
 45  4  1  0  0  0  0
 45129  1  0  0  0  0
 45130  1  0  0  0  0
  4 46  1  0  0  0  0
 48 47  2  0  0  0  0
 48 52  1  0  0  0  0
 49 45  1  0  0  0  0
 50 51  2  0  0  0  0
 51  6  1  0  0  0  0
  6 52  1  0  0  0  0
 54 58  1  0  0  0  0
 54 53  2  0  0  0  0
 55 72  1  0  0  0  0
 55 51  1  0  0  0  0
 56 57  2  0  0  0  0
 57 59  1  0  0  0  0
 57  8  1  0  0  0  0
  8 58  1  0  0  0  0
 59 75  1  0  0  0  0
 61 46  1  0  0  0  0
 62  1  1  0  0  0  0
 64 40  1  0  0  0  0
 65 40  1  0  0  0  0
 67 41  1  0  0  0  0
 68 43  1  0  0  0  0
 70 49  1  0  0  0  0
 71 52  1  0  0  0  0
 73 58  1  0  0  0  0
 74 59  1  0  0  0  0
M  END
