@<TRIPOS>MOLECULE
lig
 130 130 0 0 0
SMALL
GASTEIGER

@<TRIPOS>ATOM
      1 N         -12.1847    2.8376   -7.4073 N.4     1  UNL11       0.3857
      2 C         -12.3188    1.3879   -7.5411 C.3     1  UNL11      -0.0050
      3 C          -9.2221    0.8767   -5.6403 C.3     1  UNL11       0.1016
      4 C          -9.1554    4.5731   -5.1812 C.3     1  UNL11       0.0359
      5 C         -12.4365    4.5224   -3.3819 C.3     1  UNL11       0.0888
      6 C         -11.5076    7.2935   -1.0718 C.3     1  UNL11       0.0999
      7 C          -8.0420    7.8285    0.2124 C.3     1  UNL11       0.0966
      8 C          -6.7701    6.2112    3.3976 C.3     1  UNL11       0.0992
      9 C         -11.3782    0.7269   -6.6412 C.2     1  UNL11       0.1991
     10 O         -11.8004   -0.0411   -5.7500 O.2     1  UNL11      -0.2776
     11 C         -12.0172    0.9789   -8.9843 C.3     1  UNL11      -0.0551
     12 C          -7.8271    0.4162   -6.0681 C.3     1  UNL11      -0.0197
     13 C          -8.5764    5.5684   -6.1887 C.3     1  UNL11      -0.0310
     14 C         -13.0154    3.5271   -2.3744 C.3     1  UNL11      -0.0037
     15 C         -11.9992    7.2237    0.3011 C.3     1  UNL11      -0.0159
     16 C          -7.4016    9.0963    0.5504 C.3     1  UNL11      -0.0381
     17 C          -5.3293    6.0105    3.5227 C.3     1  UNL11      -0.0260
     18 C         -13.0030    1.6716   -9.9273 C.3     1  UNL11      -0.0233
     19 C          -7.9227   -0.9670   -6.7150 C.3     1  UNL11      -0.0605
     20 C          -6.9155    0.3437   -4.8415 C.3     1  UNL11      -0.0605
     21 C          -7.1815    5.1079   -6.6165 C.3     1  UNL11      -0.0450
     22 C         -13.1066    2.2072   -2.9917 C.3     1  UNL11      -0.0454
     23 C         -13.4579    6.7620    0.2977 C.3     1  UNL11       0.0469
     24 C          -4.7693    5.4939    2.1959 C.3     1  UNL11      -0.0512
     25 C         -12.7013    1.2626  -11.3705 C.3     1  UNL11       0.0645
     26 C         -14.2614    1.8357   -3.6705 C.3     1  UNL11      -0.0585
     27 C          -6.6025    6.1032   -7.6240 C.3     1  UNL11      -0.0626
     28 C         -12.0388    1.3221   -2.9007 C.3     1  UNL11      -0.0585
     29 C          -6.2699    5.0354   -5.3899 C.3     1  UNL11      -0.0626
     30 C         -13.9495    6.6921    1.6706 C.2     1  UNL11       0.3048
     31 C          -3.2595    5.2836    2.3270 C.3     1  UNL11      -0.0558
     32 C          -2.6994    4.7671    1.0002 C.3     1  UNL11      -0.0653
     33 C         -14.3482    0.5790   -4.2582 C.3     1  UNL11      -0.0615
     34 C         -12.1256    0.0654   -3.4884 C.3     1  UNL11      -0.0615
     35 N         -13.6098    1.9009  -12.2396 N.pl3   1  UNL11      -0.2787
     36 O         -15.2199    6.3054    1.9139 O.3     1  UNL11      -0.4806
     37 O         -13.1942    6.9904    2.6209 O.2     1  UNL11      -0.2510
     38 C         -13.3515    1.5508  -13.4752 C.cat   1  UNL11       0.3410
     39 C         -13.2803   -0.3061   -4.1672 C.3     1  UNL11      -0.0617
     40 N         -14.0573    2.0149  -14.4302 N.pl3   1  UNL11      -0.2919
     41 N         -12.3679    0.7237  -13.7296 N.pl3   1  UNL11      -0.2919
     42 C          -9.1308    2.1966   -5.0230 C.2     1  UNL11       0.2339
     43 N         -10.0622    0.9436   -6.7707 N.am    1  UNL11      -0.3051
     44 O          -8.9476    2.2990   -3.7907 O.2     1  UNL11      -0.2738
     45 C         -10.5503    5.0335   -4.7534 C.3     1  UNL11       0.0150
     46 N          -9.2435    3.2983   -5.7774 N.am    1  UNL11      -0.3097
     47 O         -12.9664    6.8079   -3.2590 O.2     1  UNL11      -0.2741
     48 C         -12.3453    5.8424   -2.7646 C.2     1  UNL11       0.2310
     49 N         -11.1035    4.0824   -3.7907 N.3     1  UNL11      -0.3036
     50 O          -9.4313    7.8832   -2.1475 O.2     1  UNL11      -0.2738
     51 C         -10.0489    7.7552   -1.0683 C.2     1  UNL11       0.2340
     52 N         -11.5957    6.0188   -1.6680 N.am    1  UNL11      -0.3027
     53 O          -8.2230    5.6473    1.2252 O.2     1  UNL11      -0.2738
     54 C          -7.7634    6.8062    1.3162 C.2     1  UNL11       0.2337
     55 N          -9.4334    8.0223    0.0916 N.am    1  UNL11      -0.3027
     56 O          -8.5519    6.9673    4.8361 O.2     1  UNL11      -0.2740
     57 C          -7.3301    6.7277    4.7243 C.2     1  UNL11       0.2308
     58 N          -7.0268    7.1533    2.3804 N.am    1  UNL11      -0.3025
     59 N          -6.5110    6.9233    5.7666 N.am    1  UNL11      -0.3278
     60 H         -12.3862    3.1107   -6.4433 H       1  UNL11      -0.0890
     61 H          -9.3856    3.2189   -6.7336 H       1  UNL11       0.1491
     62 H         -12.8432    3.3002   -8.0372 H       1  UNL11      -0.0890
     63 H         -13.5207    2.8627  -12.1507 H       1  UNL11       0.2578
     64 H         -13.8730    1.7650  -15.3121 H       1  UNL11       0.2545
     65 H         -14.7593    2.6052  -14.2485 H       1  UNL11       0.2545
     66 H         -12.3134    0.5706  -14.6859 H       1  UNL11       0.2545
     67 H         -12.5282   -0.1186  -13.2760 H       1  UNL11       0.2545
     68 H          -9.6875    1.1464   -7.6422 H       1  UNL11       0.1494
     69 H         -11.2309    3.1151   -7.6477 H       1  UNL11      -0.0890
     70 H         -10.4946    4.0340   -2.9714 H       1  UNL11       0.1227
     71 H         -11.1136    5.2695   -1.2843 H       1  UNL11       0.1495
     72 H          -9.9451    8.3490    0.8482 H       1  UNL11       0.1495
     73 H          -6.6702    8.0526    2.4510 H       1  UNL11       0.1495
     74 H          -5.5629    6.7374    5.6799 H       1  UNL11       0.1450
     75 H          -6.8661    7.2508    6.6078 H       1  UNL11       0.1450
     76 H         -13.3361    1.0919   -7.2847 H       1  UNL11       0.0178
     77 H          -9.6345    0.1676   -4.9226 H       1  UNL11       0.0597
     78 H          -8.5059    4.5214   -4.3074 H       1  UNL11       0.0511
     79 H         -13.0859    4.5741   -4.2558 H       1  UNL11       0.0560
     80 H         -12.1116    8.0021   -1.6384 H       1  UNL11       0.0595
     81 H          -7.6430    7.4605   -0.7328 H       1  UNL11       0.0592
     82 H          -7.2482    5.2647    3.1453 H       1  UNL11       0.0594
     83 H         -12.1172   -0.1019   -9.0841 H       1  UNL11       0.0255
     84 H         -11.0000    1.2749   -9.2407 H       1  UNL11       0.0255
     85 H          -7.4147    1.1253   -6.7859 H       1  UNL11       0.0318
     86 H          -9.2259    5.6201   -7.0626 H       1  UNL11       0.0286
     87 H          -8.5083    6.5538   -5.7279 H       1  UNL11       0.0286
     88 H         -14.0092    3.8552   -2.0696 H       1  UNL11       0.0333
     89 H         -12.3660    3.4754   -1.5005 H       1  UNL11       0.0333
     90 H         -11.9311    8.2091    0.7620 H       1  UNL11       0.0293
     91 H         -11.3952    6.5150    0.8678 H       1  UNL11       0.0293
     92 H          -6.3260    8.9465    0.6438 H       1  UNL11       0.0252
     93 H          -7.8006    9.4643    1.4956 H       1  UNL11       0.0252
     94 H          -7.6001    9.8246   -0.2360 H       1  UNL11       0.0252
     95 H          -5.1308    5.2822    4.3090 H       1  UNL11       0.0288
     96 H          -4.8512    6.9570    3.7750 H       1  UNL11       0.0288
     97 H         -14.0202    1.3756   -9.6709 H       1  UNL11       0.0295
     98 H         -12.9029    2.7524   -9.8275 H       1  UNL11       0.0295
     99 H          -6.9289   -1.2950   -7.0198 H       1  UNL11       0.0233
    100 H          -8.5721   -0.9153   -7.5889 H       1  UNL11       0.0233
    101 H          -8.3352   -1.6760   -5.9973 H       1  UNL11       0.0233
    102 H          -5.9217    0.0156   -5.1463 H       1  UNL11       0.0233
    103 H          -7.3280   -0.3654   -4.1237 H       1  UNL11       0.0233
    104 H          -6.8474    1.3291   -4.3806 H       1  UNL11       0.0233
    105 H          -7.2496    4.1225   -7.0774 H       1  UNL11       0.0296
    106 H         -14.0619    7.4706   -0.2690 H       1  UNL11       0.0378
    107 H         -13.5260    5.7766   -0.1632 H       1  UNL11       0.0378
    108 H          -5.2474    4.5474    1.9436 H       1  UNL11       0.0266
    109 H          -4.9677    6.2222    1.4095 H       1  UNL11       0.0266
    110 H         -12.8013    0.1818  -11.4703 H       1  UNL11       0.0655
    111 H         -11.6841    1.5586  -11.6269 H       1  UNL11       0.0655
    112 H         -15.0450    2.4852   -3.7373 H       1  UNL11       0.0620
    113 H          -5.6088    5.7752   -7.9288 H       1  UNL11       0.0232
    114 H          -7.2520    6.1549   -8.4979 H       1  UNL11       0.0232
    115 H          -6.5344    7.0887   -7.1632 H       1  UNL11       0.0232
    116 H         -11.1914    1.5947   -2.4026 H       1  UNL11       0.0620
    117 H          -5.2761    4.7073   -5.6947 H       1  UNL11       0.0232
    118 H          -6.6823    4.3263   -4.6721 H       1  UNL11       0.0232
    119 H          -6.2018    6.0208   -4.9290 H       1  UNL11       0.0232
    120 H          -3.0610    4.5554    3.1133 H       1  UNL11       0.0263
    121 H          -2.7813    6.2301    2.5793 H       1  UNL11       0.0263
    122 H          -1.6238    4.6173    1.0936 H       1  UNL11       0.0230
    123 H          -3.1775    3.8206    0.7479 H       1  UNL11       0.0230
    124 H          -2.8979    5.4953    0.2139 H       1  UNL11       0.0230
    125 H         -15.1956    0.3064   -4.7563 H       1  UNL11       0.0618
    126 H         -11.3420   -0.5841   -3.4216 H       1  UNL11       0.0618
    127 H         -15.5499    6.2586    2.8354 H       1  UNL11       0.2951
    128 H         -13.3441   -1.2282   -4.5984 H       1  UNL11       0.0618
    129 H         -11.1998    5.0852   -5.6273 H       1  UNL11       0.0442
    130 H         -10.4822    6.0189   -4.2926 H       1  UNL11       0.0442
@<TRIPOS>UNITY_ATOM_ATTR
1 1
charge 1
@<TRIPOS>BOND
     1     1    69    1
     2     1    60    1
     3     1     2    1
     4     2    11    1
     5     2    76    1
     6     3    43    1
     7     3    42    1
     8     3    77    1
     9     4    13    1
    10     4    78    1
    11     5    49    1
    12     5    48    1
    13     5    79    1
    14     6    15    1
    15     6    80    1
    16     7    55    1
    17     7    54    1
    18     7    81    1
    19     8    17    1
    20     8    82    1
    21     9    10    2
    22     9     2    1
    23    11    18    1
    24    11    83    1
    25    11    84    1
    26    12     3    1
    27    12    85    1
    28    13    21    1
    29    13    86    1
    30    13    87    1
    31    14     5    1
    32    14    88    1
    33    14    89    1
    34    15    23    1
    35    15    90    1
    36    15    91    1
    37     7    16    1
    38    16    92    1
    39    16    93    1
    40    16    94    1
    41    17    24    1
    42    17    95    1
    43    17    96    1
    44    18    25    1
    45    18    97    1
    46    18    98    1
    47    19    12    1
    48    19    99    1
    49    19   100    1
    50    19   101    1
    51    20    12    1
    52    20   102    1
    53    20   103    1
    54    20   104    1
    55    21    29    1
    56    21   105    1
    57    22    14    1
    58    23    30    1
    59    23   106    1
    60    23   107    1
    61    24    31    1
    62    24   108    1
    63    24   109    1
    64    25    35    1
    65    25   110    1
    66    25   111    1
    67    26    22   ar
    68    26   112    1
    69    27    21    1
    70    27   113    1
    71    27   114    1
    72    27   115    1
    73    28    22   ar
    74    28   116    1
    75    29   117    1
    76    29   118    1
    77    29   119    1
    78    30    36    1
    79    31    32    1
    80    31   120    1
    81    31   121    1
    82    32   122    1
    83    32   123    1
    84    32   124    1
    85    33    26   ar
    86    33   125    1
    87    34    28   ar
    88    34   126    1
    89    35    63    1
    90    36   127    1
    91    37    30    2
    92    38    41    1
    93    38    35    1
    94    39    34   ar
    95    39    33   ar
    96    39   128    1
    97    40    38    2
    98    41    66    1
    99    42    46   am
   100    42    44    2
   101    43     9   am
   102    45     4    1
   103    45   129    1
   104    45   130    1
   105     4    46    1
   106    48    47    2
   107    48    52   am
   108    49    45    1
   109    50    51    2
   110    51     6    1
   111     6    52    1
   112    54    58   am
   113    54    53    2
   114    55    72    1
   115    55    51   am
   116    56    57    2
   117    57    59   am
   118    57     8    1
   119     8    58    1
   120    59    75    1
   121    61    46    1
   122    62     1    1
   123    64    40    1
   124    65    40    1
   125    67    41    1
   126    68    43    1
   127    70    49    1
   128    71    52    1
   129    73    58    1
   130    74    59    1
