lig
 OpenBabel01242607393D

 82 84  0  0  1  0  0  0  0  0999 V2000
    1.8240   19.3080    6.6300 S   0  0  0  0  0  0  0  0  0  0  0  0
    2.3760   17.9820    6.6190 O   0  0  0  0  0  0  0  0  0  0  0  0
    1.7240   19.9940    7.8760 O   0  0  0  0  0  0  0  0  0  0  0  0
   -0.6100   22.0420    2.1300 C   0  0  0  0  0  0  0  0  0  0  0  0
    0.1660   22.5100    3.1460 C   0  0  0  0  0  0  0  0  0  0  0  0
    1.4510   21.8960    3.4250 C   0  0  0  0  0  0  0  0  0  0  0  0
    1.8860   20.8610    2.6750 C   0  0  0  0  0  0  0  0  0  0  0  0
    1.0520   20.3130    1.5570 C   0  0  0  0  0  0  0  0  0  0  0  0
   -0.1780   20.9390    1.3160 C   0  0  0  0  0  0  0  0  0  0  0  0
   -1.0160   20.4780    0.2450 C   0  0  0  0  0  0  0  0  0  0  0  0
   -0.6120   19.4170   -0.5220 C   0  0  0  0  0  0  0  0  0  0  0  0
    0.6330   18.7760   -0.2720 C   0  0  0  0  0  0  0  0  0  0  0  0
    1.4540   19.2330    0.7620 C   0  0  0  0  0  0  0  0  0  0  0  0
   10.5250   18.8910    5.6680 O   0  0  0  0  0  0  0  0  0  0  0  0
   10.7960   20.1250    4.9080 C   0  0  0  0  0  0  0  0  0  0  0  0
    8.4890   19.6090    4.3450 N   0  0  0  0  0  0  0  0  0  0  0  0
    9.3940   20.7360    4.6290 C   0  0  1  0  0  0  0  0  0  0  0  0
    8.8390   21.4910    5.8600 C   0  0  0  0  0  0  0  0  0  0  0  0
    7.6020   20.9790    6.5680 C   0  0  0  0  0  0  0  0  0  0  0  0
    6.3430   21.5780    6.4490 C   0  0  0  0  0  0  0  0  0  0  0  0
    5.1940   21.0610    7.0610 C   0  0  0  0  0  0  0  0  0  0  0  0
    5.3080   19.8990    7.8330 C   0  0  0  0  0  0  0  0  0  0  0  0
    6.5440   19.2680    7.9470 C   0  0  0  0  0  0  0  0  0  0  0  0
    7.6790   19.7990    7.3270 C   0  0  0  0  0  0  0  0  0  0  0  0
    5.3570   18.7700    3.2720 N   0  0  0  0  0  0  0  0  0  0  0  0
    6.7560   18.2700    3.2180 C   0  0  2  0  0  0  0  0  0  0  0  0
    7.6120   19.5940    3.2760 C   0  0  0  0  0  0  0  0  0  0  0  0
    7.5800   20.4920    2.4500 O   0  0  0  0  0  0  0  0  0  0  0  0
    7.0710   17.3990    1.9780 C   0  0  0  0  0  0  0  0  0  0  0  0
    6.6020   15.9480    2.1800 C   0  0  0  0  0  0  0  0  0  0  0  0
    6.3930   18.0850    0.7700 C   0  0  0  0  0  0  0  0  0  0  0  0
    4.5550   18.6780    4.3690 C   0  0  0  0  0  0  0  0  0  0  0  0
    4.9310   18.1940    5.4430 O   0  0  0  0  0  0  0  0  0  0  0  0
    3.1550   19.3100    4.2180 C   0  0  2  0  0  0  0  0  0  0  0  0
    3.2140   20.1150    2.8940 C   0  0  0  0  0  0  0  0  0  0  0  0
    2.7720   20.2240    5.4260 C   0  0  0  0  0  0  0  0  0  0  0  0
   -0.7470   18.1940    6.7260 C   0  0  0  0  0  0  0  0  0  0  0  0
    0.1130   19.2260    5.9540 C   0  0  0  0  0  0  0  0  0  0  0  0
    0.2700   18.6910    4.5100 C   0  0  0  0  0  0  0  0  0  0  0  0
   -0.5260   20.6370    5.9520 C   0  0  0  0  0  0  0  0  0  0  0  0
    9.9800   18.3660    5.0920 H   0  0  0  0  0  0  0  0  0  0  0  0
    8.5100   18.8010    4.9670 H   0  0  0  0  0  0  0  0  0  0  0  0
    4.9740   19.2090    2.4350 H   0  0  0  0  0  0  0  0  0  0  0  0
   -1.5223   22.4860    1.9414 H   0  0  0  0  0  0  0  0  0  0  0  0
   -0.1605   23.3036    3.7193 H   0  0  0  0  0  0  0  0  0  0  0  0
    2.0339   22.2515    4.1988 H   0  0  0  0  0  0  0  0  0  0  0  0
   -1.9173   20.9431    0.0541 H   0  0  0  0  0  0  0  0  0  0  0  0
   -1.2162   19.0800   -1.2877 H   0  0  0  0  0  0  0  0  0  0  0  0
    0.9289   17.9758   -0.8526 H   0  0  0  0  0  0  0  0  0  0  0  0
    2.3603   18.7727    0.9404 H   0  0  0  0  0  0  0  0  0  0  0  0
   11.3930   20.7997    5.4853 H   0  0  0  0  0  0  0  0  0  0  0  0
   11.3393   19.9328    4.0065 H   0  0  0  0  0  0  0  0  0  0  0  0
    9.4679   21.4304    3.8183 H   0  0  0  0  0  0  0  0  0  0  0  0
    8.6204   22.4878    5.5383 H   0  0  0  0  0  0  0  0  0  0  0  0
    9.6098   21.3682    6.5919 H   0  0  0  0  0  0  0  0  0  0  0  0
    6.2573   22.4384    5.8856 H   0  0  0  0  0  0  0  0  0  0  0  0
    4.2810   21.5278    6.9449 H   0  0  0  0  0  0  0  0  0  0  0  0
    4.4812   19.5124    8.3146 H   0  0  0  0  0  0  0  0  0  0  0  0
    6.6232   18.3977    8.4959 H   0  0  0  0  0  0  0  0  0  0  0  0
    8.5862   19.3175    7.4282 H   0  0  0  0  0  0  0  0  0  0  0  0
    6.9707   17.5950    4.0200 H   0  0  0  0  0  0  0  0  0  0  0  0
    8.1254   17.3286    1.8099 H   0  0  0  0  0  0  0  0  0  0  0  0
    5.5466   15.9355    2.3554 H   0  0  0  0  0  0  0  0  0  0  0  0
    7.1085   15.5233    3.0214 H   0  0  0  0  0  0  0  0  0  0  0  0
    6.8247   15.3759    1.3036 H   0  0  0  0  0  0  0  0  0  0  0  0
    5.3393   18.1527    0.9434 H   0  0  0  0  0  0  0  0  0  0  0  0
    6.5727   17.5096   -0.1140 H   0  0  0  0  0  0  0  0  0  0  0  0
    6.7977   19.0675    0.6444 H   0  0  0  0  0  0  0  0  0  0  0  0
    2.3956   18.5564    4.1994 H   0  0  0  0  0  0  0  0  0  0  0  0
    4.0145   20.8231    2.9447 H   0  0  0  0  0  0  0  0  0  0  0  0
    3.3781   19.4413    2.0791 H   0  0  0  0  0  0  0  0  0  0  0  0
    2.1888   21.0484    5.0723 H   0  0  0  0  0  0  0  0  0  0  0  0
    3.6692   20.5777    5.8895 H   0  0  0  0  0  0  0  0  0  0  0  0
   -1.7329   18.1696    6.3109 H   0  0  0  0  0  0  0  0  0  0  0  0
   -0.8010   18.4748    7.7571 H   0  0  0  0  0  0  0  0  0  0  0  0
   -0.3010   17.2249    6.6432 H   0  0  0  0  0  0  0  0  0  0  0  0
    0.8603   19.3760    3.9380 H   0  0  0  0  0  0  0  0  0  0  0  0
   -0.6955   18.5902    4.0600 H   0  0  0  0  0  0  0  0  0  0  0  0
    0.7537   17.7369    4.5338 H   0  0  0  0  0  0  0  0  0  0  0  0
    0.1019   21.3121    5.4090 H   0  0  0  0  0  0  0  0  0  0  0  0
   -0.6331   20.9815    6.9594 H   0  0  0  0  0  0  0  0  0  0  0  0
   -1.4883   20.5921    5.4862 H   0  0  0  0  0  0  0  0  0  0  0  0
  1  3  2  0  0  0  0
  2  1  2  0  0  0  0
  4  5  1  0  0  0  0
  4 44  1  0  0  0  0
  5  6  2  0  0  0  0
  5 45  1  0  0  0  0
  6 46  1  0  0  0  0
  7 35  1  0  0  0  0
  7  6  1  0  0  0  0
  8  7  2  0  0  0  0
  9  8  1  0  0  0  0
  9  4  2  0  0  0  0
 10  9  1  0  0  0  0
 10 47  1  0  0  0  0
 11 12  1  0  0  0  0
 11 10  2  0  0  0  0
 11 48  1  0  0  0  0
 12 13  2  0  0  0  0
 12 49  1  0  0  0  0
 13  8  1  0  0  0  0
 13 50  1  0  0  0  0
 15 14  1  0  0  0  0
 15 51  1  0  0  0  0
 15 52  1  0  0  0  0
 16 17  1  0  0  0  0
 16 42  1  0  0  0  0
 17 15  1  0  0  0  0
 17 18  1  0  0  0  0
 17 53  1  6  0  0  0
 18 19  1  0  0  0  0
 18 54  1  0  0  0  0
 18 55  1  0  0  0  0
 19 24  1  0  0  0  0
 20 19  2  0  0  0  0
 20 21  1  0  0  0  0
 20 56  1  0  0  0  0
 21 22  2  0  0  0  0
 21 57  1  0  0  0  0
 22 23  1  0  0  0  0
 22 58  1  0  0  0  0
 23 59  1  0  0  0  0
 24 23  2  0  0  0  0
 24 60  1  0  0  0  0
 25 32  1  0  0  0  0
 26 25  1  0  0  0  0
 26 27  1  0  0  0  0
 26 61  1  1  0  0  0
 27 16  1  0  0  0  0
 28 27  2  0  0  0  0
 29 30  1  0  0  0  0
 29 26  1  0  0  0  0
 29 62  1  0  0  0  0
 30 63  1  0  0  0  0
 30 64  1  0  0  0  0
 30 65  1  0  0  0  0
 31 29  1  0  0  0  0
 31 66  1  0  0  0  0
 31 67  1  0  0  0  0
 31 68  1  0  0  0  0
 32 33  2  0  0  0  0
 34 32  1  0  0  0  0
 34 36  1  0  0  0  0
 34 69  1  6  0  0  0
 35 34  1  0  0  0  0
 35 70  1  0  0  0  0
 35 71  1  0  0  0  0
 36  1  1  0  0  0  0
 36 72  1  0  0  0  0
 36 73  1  0  0  0  0
 37 74  1  0  0  0  0
 37 75  1  0  0  0  0
 37 76  1  0  0  0  0
 38  1  1  0  0  0  0
 38 37  1  0  0  0  0
 39 38  1  0  0  0  0
 39 77  1  0  0  0  0
 39 78  1  0  0  0  0
 39 79  1  0  0  0  0
 40 38  1  0  0  0  0
 40 80  1  0  0  0  0
 40 81  1  0  0  0  0
 40 82  1  0  0  0  0
 41 14  1  0  0  0  0
 43 25  1  0  0  0  0
M  END
