@<TRIPOS>MOLECULE
lig
 82 84 0 0 0
SMALL
GASTEIGER

@<TRIPOS>ATOM
      1 S1         -1.2123   -2.1327   -8.2280 S.O2    1  <1>        -0.0255
      2 O1         -2.2115   -3.3704   -7.9672 O.2     1  <1>        -0.1738
      3 O2         -1.2498   -1.9888   -9.8338 O.2     1  <1>        -0.1738
      4 C1         -1.9235   -1.5965   -0.8950 C.3     1  <1>        -0.0540
      5 C2         -1.9985   -0.3149   -1.4300 C.3     1  <1>        -0.0609
      6 C3         -1.9037   -0.1279   -2.8186 C.3     1  <1>        -0.0580
      7 C4         -1.6586   -1.2161   -3.6841 C.3     1  <1>        -0.0389
      8 C5         -1.6162   -2.5287   -3.1360 C.3     1  <1>        -0.0147
      9 C6         -1.7674   -2.7160   -1.7301 C.3     1  <1>        -0.0176
     10 C7         -1.7580   -4.0131   -1.1939 C.3     1  <1>        -0.0540
     11 C8         -1.6182   -5.1356   -2.0199 C.3     1  <1>        -0.0612
     12 C9         -1.4347   -4.9600   -3.3963 C.3     1  <1>        -0.0612
     13 C10        -1.4267   -3.6734   -3.9569 C.3     1  <1>        -0.0538
     14 O          -5.3153    4.8676   -1.7024 O.3     1  VAL11      -0.3932
     15 C          -4.8580    3.6963   -1.0421 C.3     1  VAL11       0.0629
     16 N          -4.1368    2.6516   -3.1484 N.am    1  VAL11      -0.3084
     17 CA         -3.6942    3.0188   -1.8219 C.3     1  VAL11       0.0502
     18 CB         -2.4167    3.9495   -1.7917 C.3     1  VAL11      -0.0071
     19 CG         -1.1830    3.4435   -2.4655 C.3     1  VAL11      -0.0455
     20 CD2        -0.7841    3.9363   -3.7289 C.3     1  VAL11      -0.0585
     21 CE2         0.2999    3.3641   -4.4198 C.3     1  VAL11      -0.0615
     22 CZ          0.9908    2.2742   -3.8628 C.3     1  VAL11      -0.0617
     23 CE1         0.6782    1.8400   -2.5647 C.3     1  VAL11      -0.0615
     24 CD1        -0.3670    2.4625   -1.8560 C.3     1  VAL11      -0.0585
     25 N          -4.6761    0.4347   -5.4073 N.am    1  VAL11      -0.3035
     26 CA         -5.4616    1.4962   -4.8941 C.3     1  VAL11       0.1017
     27 C          -5.0666    1.6913   -3.4701 C.2     1  VAL11       0.2339
     28 O          -5.5545    0.9533   -2.5822 O.2     1  VAL11      -0.2738
     29 CB         -6.9691    1.1923   -5.2101 C.3     1  VAL11      -0.0197
     30 CG1        -7.8822    2.3037   -4.6218 C.3     1  VAL11      -0.0605
     31 CG2        -7.2296    1.0270   -6.7465 C.3     1  VAL11      -0.0605
     32 C25        -3.3923    0.5412   -5.8161 C.2     1  <1>         0.2186
     33 O5         -2.8049    1.6503   -5.8244 O.2     1  <1>        -0.2754
     34 C26        -2.6561   -0.6879   -6.1691 C.3     1  <1>         0.0588
     35 C27        -1.4239   -0.8950   -5.1503 C.3     1  <1>        -0.0145
     36 C28        -2.0294   -0.5896   -7.5948 C.3     1  <1>         0.0777
     37 C29         0.7112   -4.0556   -7.5907 C.3     1  <1>        -0.0405
     38 C30         0.5689   -2.5489   -7.7905 C.3     1  <1>         0.0795
     39 C31         1.4678   -2.1560   -8.9759 C.3     1  <1>        -0.0405
     40 C32         1.4523   -1.9334   -6.6964 C.3     1  <1>        -0.0405
     41 H          -5.9491    5.2692   -1.0715 H       1  VAL11       0.2095
     42 H          -3.7248    3.1264   -3.8846 H       1  VAL11       0.1491
     43 H          -5.0937   -0.4461   -5.4645 H       1  VAL11       0.1495
     44 H4         -1.9497   -1.7065    0.1163 H       1  <1>         0.0624
     45 H5         -2.0933    0.4592   -0.7760 H       1  <1>         0.0618
     46 H6         -2.0092    0.8133   -3.1921 H       1  <1>         0.0620
     47 H7         -1.8489   -4.1487   -0.1924 H       1  <1>         0.0624
     48 H8         -1.6688   -6.0725   -1.6182 H       1  <1>         0.0618
     49 H9         -1.3057   -5.7853   -3.9842 H       1  <1>         0.0618
     50 H10        -1.2761   -3.6074   -4.9727 H       1  <1>         0.0624
     51 H1         -5.7136    3.0242   -0.9374 H       1  VAL11       0.0576
     52 H2         -4.5223    3.9824   -0.0426 H       1  VAL11       0.0576
     53 HA         -3.4578    2.1083   -1.2767 H       1  VAL11       0.0524
     54 HB1        -2.6961    4.9070   -2.2342 H       1  VAL11       0.0332
     55 HB2        -2.1409    4.1709   -0.7535 H       1  VAL11       0.0332
     56 HD2        -1.2779    4.7236   -4.1497 H       1  VAL11       0.0620
     57 HE2         0.5912    3.7490   -5.3196 H       1  VAL11       0.0618
     58 HZ          1.7348    1.8148   -4.3888 H       1  VAL11       0.0618
     59 HE1         1.1993    1.0670   -2.1419 H       1  VAL11       0.0618
     60 HD1        -0.5563    2.1673   -0.9008 H       1  VAL11       0.0620
     61 HA         -5.2267    2.4183   -5.4271 H       1  VAL11       0.0597
     62 HB         -7.2492    0.2527   -4.7352 H       1  VAL11       0.0318
     63 HG11       -8.9365    2.1041   -4.8321 H       1  VAL11       0.0233
     64 HG12       -7.7688    2.3828   -3.5353 H       1  VAL11       0.0233
     65 HG13       -7.6197    3.2688   -5.0613 H       1  VAL11       0.0233
     66 HG21       -6.6559    0.1983   -7.1717 H       1  VAL11       0.0233
     67 HG22       -8.2855    0.8237   -6.9527 H       1  VAL11       0.0233
     68 HG23       -6.9474    1.9372   -7.2795 H       1  VAL11       0.0233
     69 H29        -3.3634   -1.5374   -6.1357 H       1  <1>         0.0413
     70 H30        -0.8631    0.0503   -5.2002 H       1  <1>         0.0321
     71 H31        -0.6765   -1.6350   -5.4746 H       1  <1>         0.0321
     72 H32        -2.7901   -0.2639   -8.3043 H       1  <1>         0.0507
     73 H33        -1.2922    0.2128   -7.5697 H       1  <1>         0.0507
     74 H34         1.7445   -4.2925   -7.3374 H       1  <1>         0.0251
     75 H35         0.0556   -4.3784   -6.7819 H       1  <1>         0.0251
     76 H36         0.4350   -4.5717   -8.5102 H       1  <1>         0.0251
     77 H37         2.5054   -2.3910   -8.7386 H       1  <1>         0.0251
     78 H38         1.1631   -2.7117   -9.8628 H       1  <1>         0.0251
     79 H39         1.3717   -1.0870   -9.1661 H       1  <1>         0.0251
     80 H40         2.4345   -2.4056   -6.7140 H       1  <1>         0.0251
     81 H41         0.9894   -2.0938   -5.7226 H       1  <1>         0.0251
     82 H42         1.5602   -0.8636   -6.8756 H       1  <1>         0.0251
@<TRIPOS>BOND
     1     1     3    2
     2     2     1    2
     3     4     5   ar
     4     4    44    1
     5     5     6   ar
     6     5    45    1
     7     6    46    1
     8     7    35    1
     9     7     6   ar
    10     8     7   ar
    11     9     8   ar
    12     9     4   ar
    13    10     9   ar
    14    10    47    1
    15    11    12   ar
    16    11    10   ar
    17    11    48    1
    18    12    13   ar
    19    12    49    1
    20    13     8   ar
    21    13    50    1
    22    15    14    1
    23    15    51    1
    24    15    52    1
    25    17    16    1
    26    16    42    1
    27    17    15    1
    28    17    18    1
    29    17    53    1
    30    18    19    1
    31    18    54    1
    32    18    55    1
    33    19    24   ar
    34    20    19   ar
    35    20    21   ar
    36    20    56    1
    37    21    22   ar
    38    21    57    1
    39    22    23   ar
    40    22    58    1
    41    23    59    1
    42    24    23   ar
    43    24    60    1
    44    25    32   am
    45    26    25    1
    46    26    27    1
    47    26    61    1
    48    27    16   am
    49    28    27    2
    50    29    30    1
    51    29    26    1
    52    29    62    1
    53    30    63    1
    54    30    64    1
    55    30    65    1
    56    31    29    1
    57    31    66    1
    58    31    67    1
    59    31    68    1
    60    32    33    2
    61    34    32    1
    62    34    36    1
    63    34    69    1
    64    35    34    1
    65    35    70    1
    66    35    71    1
    67    36     1    1
    68    36    72    1
    69    36    73    1
    70    37    74    1
    71    37    75    1
    72    37    76    1
    73    38     1    1
    74    38    37    1
    75    39    38    1
    76    39    77    1
    77    39    78    1
    78    39    79    1
    79    40    38    1
    80    40    80    1
    81    40    81    1
    82    40    82    1
    83    41    14    1
    84    43    25    1
