hyb
  MJ221101                      

 82 84  0  0  1  0  0  0  0  0999 V2000
    2.9864    9.1188    0.0000 S   0  0  0  0  0  0  0  0  0  0  0  0
    3.3989    8.4042    0.0000 O   0  0  0  0  0  0  0  0  0  0  0  0
    2.5739    9.8332    0.0000 O   0  0  0  0  0  0  0  0  0  0  0  0
    6.5587    9.5313    0.0000 C   0  0  0  0  0  0  0  0  0  0  0  0
    5.8442    9.1188    0.0000 C   0  0  0  0  0  0  0  0  0  0  0  0
    5.1298    9.5313    0.0000 C   0  0  0  0  0  0  0  0  0  0  0  0
    5.1298   10.3562    0.0000 C   0  0  0  0  0  0  0  0  0  0  0  0
    5.8442   10.7688    0.0000 C   0  0  0  0  0  0  0  0  0  0  0  0
    6.5587   10.3562    0.0000 C   0  0  0  0  0  0  0  0  0  0  0  0
    7.2732   10.7688    0.0000 C   0  0  0  0  0  0  0  0  0  0  0  0
    7.2732   11.5938    0.0000 C   0  0  0  0  0  0  0  0  0  0  0  0
    6.5587   12.0063    0.0000 C   0  0  0  0  0  0  0  0  0  0  0  0
    5.8442   11.5938    0.0000 C   0  0  0  0  0  0  0  0  0  0  0  0
   -1.3004    9.1188    0.0000 O   0  0  0  0  0  0  0  0  0  0  0  0
   -0.5860    9.5313    0.0000 C   0  0  0  0  0  0  0  0  0  0  0  0
    0.1285   10.7688    0.0000 N   0  0  0  0  0  0  0  0  0  0  0  0
   -0.5860   10.3562    0.0000 C   0  0  0  0  0  0  0  0  0  0  0  0
   -1.3004   10.7688    0.0000 C   0  0  0  0  0  0  0  0  0  0  0  0
   -1.3004   11.5938    0.0000 C   0  0  0  0  0  0  0  0  0  0  0  0
   -0.5860   12.0063    0.0000 C   0  0  0  0  0  0  0  0  0  0  0  0
   -0.5860   12.8313    0.0000 C   0  0  0  0  0  0  0  0  0  0  0  0
   -1.3004   13.2438    0.0000 C   0  0  0  0  0  0  0  0  0  0  0  0
   -2.0149   12.8313    0.0000 C   0  0  0  0  0  0  0  0  0  0  0  0
   -2.0149   12.0063    0.0000 C   0  0  0  0  0  0  0  0  0  0  0  0
    2.2719   10.3562    0.0000 N   0  0  0  0  0  0  0  0  0  0  0  0
    1.5573   10.7688    0.0000 C   0  0  0  0  0  0  0  0  0  0  0  0
    0.8430   10.3562    0.0000 C   0  0  0  0  0  0  0  0  0  0  0  0
    0.8430    9.5313    0.0000 O   0  0  0  0  0  0  0  0  0  0  0  0
    1.5573   11.5938    0.0000 C   0  0  0  0  0  0  0  0  0  0  0  0
    0.8430   12.0063    0.0000 C   0  0  0  0  0  0  0  0  0  0  0  0
    2.2719   12.0063    0.0000 C   0  0  0  0  0  0  0  0  0  0  0  0
    2.9864   10.7688    0.0000 C   0  0  0  0  0  0  0  0  0  0  0  0
    2.9864   11.5938    0.0000 O   0  0  0  0  0  0  0  0  0  0  0  0
    3.7009   10.3562    0.0000 C   0  0  0  0  0  0  0  0  0  0  0  0
    4.4153   10.7688    0.0000 C   0  0  0  0  0  0  0  0  0  0  0  0
    3.7009    9.5313    0.0000 C   0  0  0  0  0  0  0  0  0  0  0  0
    1.8594    9.4207    0.0000 C   0  0  0  0  0  0  0  0  0  0  0  0
    2.2719    8.7063    0.0000 C   0  0  0  0  0  0  0  0  0  0  0  0
    2.6844    7.9917    0.0000 C   0  0  0  0  0  0  0  0  0  0  0  0
    1.5573    8.2937    0.0000 C   0  0  0  0  0  0  0  0  0  0  0  0
   -2.0149    9.5313    0.0000 H   0  0  0  0  0  0  0  0  0  0  0  0
    0.1285   11.5938    0.0000 H   0  0  0  0  0  0  0  0  0  0  0  0
    1.6886    9.7729    0.0000 H   0  0  0  0  0  0  0  0  0  0  0  0
    7.2732    9.1188    0.0000 H   0  0  0  0  0  0  0  0  0  0  0  0
    5.8442    8.2937    0.0000 H   0  0  0  0  0  0  0  0  0  0  0  0
    4.4153    9.1188    0.0000 H   0  0  0  0  0  0  0  0  0  0  0  0
    7.9877   10.3562    0.0000 H   0  0  0  0  0  0  0  0  0  0  0  0
    7.9877   12.0063    0.0000 H   0  0  0  0  0  0  0  0  0  0  0  0
    6.5587   12.8313    0.0000 H   0  0  0  0  0  0  0  0  0  0  0  0
    5.1298   12.0063    0.0000 H   0  0  0  0  0  0  0  0  0  0  0  0
   -0.1326    8.8420    0.0000 H   0  0  0  0  0  0  0  0  0  0  0  0
    0.2376    9.4833    0.0000 H   0  0  0  0  0  0  0  0  0  0  0  0
    0.1285    9.9438    0.0000 H   0  0  0  0  0  0  0  0  0  0  0  0
   -2.1240   10.7208    0.0000 H   0  0  0  0  0  0  0  0  0  0  0  0
   -1.7538   10.0795    0.0000 H   0  0  0  0  0  0  0  0  0  0  0  0
   -0.5860   11.1813    0.0000 H   0  0  0  0  0  0  0  0  0  0  0  0
    0.1285   13.2438    0.0000 H   0  0  0  0  0  0  0  0  0  0  0  0
   -1.3004   14.0688    0.0000 H   0  0  0  0  0  0  0  0  0  0  0  0
   -2.7294   13.2438    0.0000 H   0  0  0  0  0  0  0  0  0  0  0  0
   -2.7294   11.5938    0.0000 H   0  0  0  0  0  0  0  0  0  0  0  0
    1.5573    9.9438    0.0000 H   0  0  0  0  0  0  0  0  0  0  0  0
    0.8430   11.1813    0.0000 H   0  0  0  0  0  0  0  0  0  0  0  0
    1.5573   12.4188    0.0000 H   0  0  0  0  0  0  0  0  0  0  0  0
    0.8430   12.8313    0.0000 H   0  0  0  0  0  0  0  0  0  0  0  0
    0.1285   12.4188    0.0000 H   0  0  0  0  0  0  0  0  0  0  0  0
    2.9039   12.5366    0.0000 H   0  0  0  0  0  0  0  0  0  0  0  0
    2.4152   12.8187    0.0000 H   0  0  0  0  0  0  0  0  0  0  0  0
    2.2719   11.1813    0.0000 H   0  0  0  0  0  0  0  0  0  0  0  0
    2.9864    9.9438    0.0000 H   0  0  0  0  0  0  0  0  0  0  0  0
    4.7855   11.5060    0.0000 H   0  0  0  0  0  0  0  0  0  0  0  0
    4.0451   11.5060    0.0000 H   0  0  0  0  0  0  0  0  0  0  0  0
    4.4153    9.9438    0.0000 H   0  0  0  0  0  0  0  0  0  0  0  0
    3.7009    8.7063    0.0000 H   0  0  0  0  0  0  0  0  0  0  0  0
    1.0469    9.2775    0.0000 H   0  0  0  0  0  0  0  0  0  0  0  0
    1.3291    8.7887    0.0000 H   0  0  0  0  0  0  0  0  0  0  0  0
    2.1014   10.2094    0.0000 H   0  0  0  0  0  0  0  0  0  0  0  0
    1.8665    7.8841    0.0000 H   0  0  0  0  0  0  0  0  0  0  0  0
    2.4709    7.1949    0.0000 H   0  0  0  0  0  0  0  0  0  0  0  0
    3.3389    7.4896    0.0000 H   0  0  0  0  0  0  0  0  0  0  0  0
    0.7692    8.5373    0.0000 H   0  0  0  0  0  0  0  0  0  0  0  0
    0.8495    7.8701    0.0000 H   0  0  0  0  0  0  0  0  0  0  0  0
    1.3995    7.4840    0.0000 H   0  0  0  0  0  0  0  0  0  0  0  0
  1  3  2  0  0  0  0
  2  1  2  0  0  0  0
  4  5  1  0  0  0  0
  4 44  1  0  0  0  0
  5  6  2  0  0  0  0
  5 45  1  0  0  0  0
  6 46  1  0  0  0  0
  7 35  1  0  0  0  0
  7  6  1  0  0  0  0
  8  7  2  0  0  0  0
  9  8  1  0  0  0  0
  9  4  2  0  0  0  0
 10  9  1  0  0  0  0
 10 47  1  0  0  0  0
 11 12  1  0  0  0  0
 11 10  2  0  0  0  0
 11 48  1  0  0  0  0
 12 13  2  0  0  0  0
 12 49  1  0  0  0  0
 13  8  1  0  0  0  0
 13 50  1  0  0  0  0
 15 14  1  0  0  0  0
 15 51  1  0  0  0  0
 15 52  1  0  0  0  0
 17 16  1  6  0  0  0
 16 42  1  0  0  0  0
 17 15  1  0  0  0  0
 17 18  1  0  0  0  0
 17 53  1  1  0  0  0
 18 19  1  0  0  0  0
 18 54  1  0  0  0  0
 18 55  1  0  0  0  0
 19 24  1  0  0  0  0
 20 19  2  0  0  0  0
 20 21  1  0  0  0  0
 20 56  1  0  0  0  0
 21 22  2  0  0  0  0
 21 57  1  0  0  0  0
 22 23  1  0  0  0  0
 22 58  1  0  0  0  0
 23 59  1  0  0  0  0
 24 23  2  0  0  0  0
 24 60  1  0  0  0  0
 25 32  1  0  0  0  0
 26 25  1  6  0  0  0
 26 27  1  0  0  0  0
 26 61  1  1  0  0  0
 27 16  1  0  0  0  0
 28 27  2  0  0  0  0
 29 30  1  0  0  0  0
 29 26  1  0  0  0  0
 29 62  1  0  0  0  0
 30 63  1  0  0  0  0
 30 64  1  0  0  0  0
 30 65  1  0  0  0  0
 31 29  1  0  0  0  0
 31 66  1  0  0  0  0
 31 67  1  0  0  0  0
 31 68  1  0  0  0  0
 32 33  2  0  0  0  0
 34 32  1  6  0  0  0
 34 36  1  0  0  0  0
 34 69  1  1  0  0  0
 35 34  1  0  0  0  0
 35 70  1  0  0  0  0
 35 71  1  0  0  0  0
 36  1  1  0  0  0  0
 36 72  1  0  0  0  0
 36 73  1  0  0  0  0
 37 74  1  0  0  0  0
 37 75  1  0  0  0  0
 37 76  1  0  0  0  0
 38  1  1  0  0  0  0
 38 37  1  0  0  0  0
 39 38  1  0  0  0  0
 39 77  1  0  0  0  0
 39 78  1  0  0  0  0
 39 79  1  0  0  0  0
 40 38  1  0  0  0  0
 40 80  1  0  0  0  0
 40 81  1  0  0  0  0
 40 82  1  0  0  0  0
 41 14  1  0  0  0  0
 43 25  1  0  0  0  0
M  END
