hyb
  Mrv15b2301242607393D          

 82 84  0  0  1  0            999 V2000
   -1.2123   -2.1327   -8.2280 S   0  0  1  0  0  0  0  0  0  0  0  0
   -2.2115   -3.3704   -7.9672 O   0  0  0  0  0  0  0  0  0  0  0  0
   -1.2498   -1.9888   -9.8338 O   0  0  0  0  0  0  0  0  0  0  0  0
   -1.9235   -1.5965   -0.8950 C   0  0  0  0  0  0  0  0  0  0  0  0
   -1.9985   -0.3149   -1.4300 C   0  0  0  0  0  0  0  0  0  0  0  0
   -1.9037   -0.1279   -2.8186 C   0  0  0  0  0  0  0  0  0  0  0  0
   -1.6586   -1.2161   -3.6841 C   0  0  0  0  0  0  0  0  0  0  0  0
   -1.6162   -2.5287   -3.1360 C   0  0  0  0  0  0  0  0  0  0  0  0
   -1.7674   -2.7160   -1.7301 C   0  0  0  0  0  0  0  0  0  0  0  0
   -1.7580   -4.0131   -1.1939 C   0  0  0  0  0  0  0  0  0  0  0  0
   -1.6182   -5.1356   -2.0199 C   0  0  0  0  0  0  0  0  0  0  0  0
   -1.4347   -4.9600   -3.3963 C   0  0  0  0  0  0  0  0  0  0  0  0
   -1.4267   -3.6734   -3.9569 C   0  0  0  0  0  0  0  0  0  0  0  0
   -5.3153    4.8676   -1.7024 O   0  0  0  0  0  0  0  0  0  0  0  0
   -4.8580    3.6963   -1.0421 C   0  0  2  0  0  0  0  0  0  0  0  0
   -4.1368    2.6516   -3.1484 N   0  0  0  0  0  0  0  0  0  0  0  0
   -3.6942    3.0188   -1.8219 C   0  0  1  0  0  0  0  0  0  0  0  0
   -2.4167    3.9495   -1.7917 C   0  0  1  0  0  0  0  0  0  0  0  0
   -1.1830    3.4435   -2.4655 C   0  0  0  0  0  0  0  0  0  0  0  0
   -0.7841    3.9363   -3.7289 C   0  0  0  0  0  0  0  0  0  0  0  0
    0.2999    3.3641   -4.4198 C   0  0  0  0  0  0  0  0  0  0  0  0
    0.9908    2.2742   -3.8628 C   0  0  0  0  0  0  0  0  0  0  0  0
    0.6782    1.8400   -2.5647 C   0  0  0  0  0  0  0  0  0  0  0  0
   -0.3670    2.4625   -1.8560 C   0  0  0  0  0  0  0  0  0  0  0  0
   -4.6761    0.4347   -5.4073 N   0  0  0  0  0  0  0  0  0  0  0  0
   -5.4616    1.4962   -4.8941 C   0  0  2  0  0  0  0  0  0  0  0  0
   -5.0666    1.6913   -3.4701 C   0  0  0  0  0  0  0  0  0  0  0  0
   -5.5545    0.9533   -2.5822 O   0  0  0  0  0  0  0  0  0  0  0  0
   -6.9691    1.1923   -5.2101 C   0  0  1  0  0  0  0  0  0  0  0  0
   -7.8822    2.3037   -4.6218 C   0  0  0  0  0  0  0  0  0  0  0  0
   -7.2296    1.0270   -6.7465 C   0  0  0  0  0  0  0  0  0  0  0  0
   -3.3923    0.5412   -5.8161 C   0  0  0  0  0  0  0  0  0  0  0  0
   -2.8049    1.6503   -5.8244 O   0  0  0  0  0  0  0  0  0  0  0  0
   -2.6561   -0.6879   -6.1691 C   0  0  2  0  0  0  0  0  0  0  0  0
   -1.4239   -0.8950   -5.1503 C   0  0  1  0  0  0  0  0  0  0  0  0
   -2.0294   -0.5896   -7.5948 C   0  0  2  0  0  0  0  0  0  0  0  0
    0.7112   -4.0556   -7.5907 C   0  0  0  0  0  0  0  0  0  0  0  0
    0.5689   -2.5489   -7.7905 C   0  0  1  0  0  0  0  0  0  0  0  0
    1.4678   -2.1560   -8.9759 C   0  0  0  0  0  0  0  0  0  0  0  0
    1.4523   -1.9334   -6.6964 C   0  0  0  0  0  0  0  0  0  0  0  0
   -5.9491    5.2692   -1.0715 H   0  0  0  0  0  0  0  0  0  0  0  0
   -3.7248    3.1264   -3.8846 H   0  0  0  0  0  0  0  0  0  0  0  0
   -5.0937   -0.4461   -5.4645 H   0  0  0  0  0  0  0  0  0  0  0  0
   -1.9497   -1.7065    0.1163 H   0  0  0  0  0  0  0  0  0  0  0  0
   -2.0933    0.4592   -0.7760 H   0  0  0  0  0  0  0  0  0  0  0  0
   -2.0092    0.8133   -3.1921 H   0  0  0  0  0  0  0  0  0  0  0  0
   -1.8489   -4.1487   -0.1924 H   0  0  0  0  0  0  0  0  0  0  0  0
   -1.6688   -6.0725   -1.6182 H   0  0  0  0  0  0  0  0  0  0  0  0
   -1.3057   -5.7853   -3.9842 H   0  0  0  0  0  0  0  0  0  0  0  0
   -1.2761   -3.6074   -4.9727 H   0  0  0  0  0  0  0  0  0  0  0  0
   -5.7136    3.0242   -0.9374 H   0  0  0  0  0  0  0  0  0  0  0  0
   -4.5223    3.9824   -0.0426 H   0  0  0  0  0  0  0  0  0  0  0  0
   -3.4578    2.1083   -1.2767 H   0  0  0  0  0  0  0  0  0  0  0  0
   -2.6961    4.9070   -2.2342 H   0  0  0  0  0  0  0  0  0  0  0  0
   -2.1409    4.1709   -0.7535 H   0  0  0  0  0  0  0  0  0  0  0  0
   -1.2779    4.7236   -4.1497 H   0  0  0  0  0  0  0  0  0  0  0  0
    0.5912    3.7490   -5.3196 H   0  0  0  0  0  0  0  0  0  0  0  0
    1.7348    1.8148   -4.3888 H   0  0  0  0  0  0  0  0  0  0  0  0
    1.1993    1.0670   -2.1419 H   0  0  0  0  0  0  0  0  0  0  0  0
   -0.5563    2.1673   -0.9008 H   0  0  0  0  0  0  0  0  0  0  0  0
   -5.2267    2.4183   -5.4271 H   0  0  0  0  0  0  0  0  0  0  0  0
   -7.2492    0.2527   -4.7352 H   0  0  0  0  0  0  0  0  0  0  0  0
   -8.9365    2.1041   -4.8321 H   0  0  0  0  0  0  0  0  0  0  0  0
   -7.7688    2.3828   -3.5353 H   0  0  0  0  0  0  0  0  0  0  0  0
   -7.6197    3.2688   -5.0613 H   0  0  0  0  0  0  0  0  0  0  0  0
   -6.6559    0.1983   -7.1717 H   0  0  0  0  0  0  0  0  0  0  0  0
   -8.2855    0.8237   -6.9527 H   0  0  0  0  0  0  0  0  0  0  0  0
   -6.9474    1.9372   -7.2795 H   0  0  0  0  0  0  0  0  0  0  0  0
   -3.3634   -1.5374   -6.1357 H   0  0  0  0  0  0  0  0  0  0  0  0
   -0.8631    0.0503   -5.2002 H   0  0  0  0  0  0  0  0  0  0  0  0
   -0.6765   -1.6350   -5.4746 H   0  0  0  0  0  0  0  0  0  0  0  0
   -2.7901   -0.2639   -8.3043 H   0  0  0  0  0  0  0  0  0  0  0  0
   -1.2922    0.2128   -7.5697 H   0  0  0  0  0  0  0  0  0  0  0  0
    1.7445   -4.2925   -7.3374 H   0  0  0  0  0  0  0  0  0  0  0  0
    0.0556   -4.3784   -6.7819 H   0  0  0  0  0  0  0  0  0  0  0  0
    0.4350   -4.5717   -8.5102 H   0  0  0  0  0  0  0  0  0  0  0  0
    2.5054   -2.3910   -8.7386 H   0  0  0  0  0  0  0  0  0  0  0  0
    1.1631   -2.7117   -9.8628 H   0  0  0  0  0  0  0  0  0  0  0  0
    1.3717   -1.0870   -9.1661 H   0  0  0  0  0  0  0  0  0  0  0  0
    2.4345   -2.4056   -6.7140 H   0  0  0  0  0  0  0  0  0  0  0  0
    0.9894   -2.0938   -5.7226 H   0  0  0  0  0  0  0  0  0  0  0  0
    1.5602   -0.8636   -6.8756 H   0  0  0  0  0  0  0  0  0  0  0  0
  1  3  2  0  0  0  0
  2  1  2  0  0  0  0
  4  5  1  0  0  0  0
  4 44  1  0  0  0  0
  5  6  2  0  0  0  0
  5 45  1  0  0  0  0
  6 46  1  0  0  0  0
  7 35  1  0  0  0  0
  7  6  1  0  0  0  0
  8  7  2  0  0  0  0
  9  8  1  0  0  0  0
  9  4  2  0  0  0  0
 10  9  1  0  0  0  0
 10 47  1  0  0  0  0
 11 12  1  0  0  0  0
 11 10  2  0  0  0  0
 11 48  1  0  0  0  0
 12 13  2  0  0  0  0
 12 49  1  0  0  0  0
 13  8  1  0  0  0  0
 13 50  1  0  0  0  0
 15 14  1  0  0  0  0
 15 51  1  0  0  0  0
 15 52  1  0  0  0  0
 17 16  1  0  0  0  0
 16 42  1  0  0  0  0
 17 15  1  0  0  0  0
 17 18  1  0  0  0  0
 17 53  1  0  0  0  0
 18 19  1  0  0  0  0
 18 54  1  0  0  0  0
 18 55  1  0  0  0  0
 19 24  1  0  0  0  0
 20 19  2  0  0  0  0
 20 21  1  0  0  0  0
 20 56  1  0  0  0  0
 21 22  2  0  0  0  0
 21 57  1  0  0  0  0
 22 23  1  0  0  0  0
 22 58  1  0  0  0  0
 23 59  1  0  0  0  0
 24 23  2  0  0  0  0
 24 60  1  0  0  0  0
 25 32  1  0  0  0  0
 26 25  1  0  0  0  0
 26 27  1  0  0  0  0
 26 61  1  0  0  0  0
 27 16  1  0  0  0  0
 28 27  2  0  0  0  0
 29 30  1  0  0  0  0
 29 26  1  0  0  0  0
 29 62  1  0  0  0  0
 30 63  1  0  0  0  0
 30 64  1  0  0  0  0
 30 65  1  0  0  0  0
 31 29  1  0  0  0  0
 31 66  1  0  0  0  0
 31 67  1  0  0  0  0
 31 68  1  0  0  0  0
 32 33  2  0  0  0  0
 34 32  1  0  0  0  0
 34 36  1  0  0  0  0
 34 69  1  0  0  0  0
 35 34  1  0  0  0  0
 35 70  1  0  0  0  0
 35 71  1  0  0  0  0
 36  1  1  0  0  0  0
 36 72  1  0  0  0  0
 36 73  1  0  0  0  0
 37 74  1  0  0  0  0
 37 75  1  0  0  0  0
 37 76  1  0  0  0  0
 38  1  1  0  0  0  0
 38 37  1  0  0  0  0
 39 38  1  0  0  0  0
 39 77  1  0  0  0  0
 39 78  1  0  0  0  0
 39 79  1  0  0  0  0
 40 38  1  0  0  0  0
 40 80  1  0  0  0  0
 40 81  1  0  0  0  0
 40 82  1  0  0  0  0
 41 14  1  0  0  0  0
 43 25  1  0  0  0  0
M  END
