0Q4
  CCTOOLS-0919241030

129129  0  0  1  0  0  0  0  0999 V2000
   -9.3550    2.5480   -2.9410 N   0  0  0  0  0
   -8.6410    2.1900   -1.7080 C   0  0  0  0  0
   -7.3630    1.4730   -2.0580 C   0  0  0  0  0
   -7.2340    0.9600   -3.1490 O   0  0  0  0  0
   -9.5230    1.2750   -0.8560 C   0  0  0  0  0
  -10.7630    2.0440   -0.3960 C   0  0  0  0  0
  -11.6440    1.1280    0.4560 C   0  0  0  0  0
  -12.8320    1.8640    0.8950 N   0  0  0  0  0
  -13.7710    1.2460    1.6750 C   0  0  0  0  0
  -13.6050   -0.0260    2.0340 N   0  0  0  0  0
  -14.8500    1.9150    2.0740 N   0  3  0  0  0
   -6.3620    1.4030   -1.1580 N   0  0  0  0  0
   -5.1190    0.7060   -1.4980 C   0  0  0  0  0
   -4.4470    0.2310   -0.2350 C   0  0  0  0  0
   -4.6930    0.7720    0.8220 O   0  0  0  0  0
   -4.1850    1.6630   -2.2430 C   0  0  0  0  0
   -3.7760    2.8050   -1.3110 C   0  0  0  0  0
   -2.9370    0.9050   -2.6990 C   0  0  0  0  0
   -3.5740   -0.7940   -0.2810 N   0  0  0  0  0
   -3.0080   -1.3310    0.9590 C   0  0  0  0  0
   -1.6530   -1.9770    0.6640 C   0  0  0  0  0
   -3.9570   -2.3800    1.5410 C   0  0  0  0  0
   -3.4440   -2.8290    2.9110 C   0  0  0  0  0
   -3.5130   -1.6560    3.8910 C   0  0  0  0  0
   -4.3100   -3.9790    3.4280 C   0  0  0  0  0
   -0.7810   -1.0020   -0.0050 N   0  0  0  0  0
    0.5700   -1.5470   -0.1930 C   0  0  0  0  0
    1.5900   -0.4850    0.1270 C   0  0  0  0  0
    1.2270    0.6180    0.4780 O   0  0  0  0  0
    0.7410   -1.9960   -1.6460 C   0  0  0  0  0
   -0.2070   -3.1310   -1.9360 C   0  0  0  0  0
   -1.4410   -2.8740   -2.5050 C   0  0  0  0  0
    0.1580   -4.4310   -1.6370 C   0  0  0  0  0
   -2.3100   -3.9150   -2.7700 C   0  0  0  0  0
   -0.7110   -5.4720   -1.9030 C   0  0  0  0  0
   -1.9470   -5.2140   -2.4670 C   0  0  0  0  0
    2.9050   -0.7600    0.0230 N   0  0  0  0  0
    3.8960    0.2730    0.3350 C   0  0  0  0  0
    5.1770   -0.0210   -0.4030 C   0  0  0  0  0
    5.2540   -0.9970   -1.1190 O   0  0  0  0  0
    4.1670    0.2830    1.8410 C   0  0  0  0  0
    2.8970    0.7030    2.5840 C   0  0  0  0  0
    3.1630    0.7130    4.0670 C   0  0  0  0  0
    4.2560    0.4140    4.4870 O   0  0  0  0  0
    2.1860    1.0530    4.9220 O   0  0  0  0  0
    6.2360    0.8010   -0.2680 N   0  0  0  0  0
    7.4810    0.5160   -0.9860 C   0  0  0  0  0
    8.6390    1.1430   -0.2530 C   0  0  0  0  0
    8.4430    1.7680    0.7680 O   0  0  0  0  0
    7.3990    1.0940   -2.4000 C   0  0  0  0  0
    9.8910    1.0110   -0.7330 N   0  0  0  0  0
   11.0170    1.6210   -0.0200 C   0  0  0  0  0
   11.1610    3.0590   -0.4470 C   0  0  0  0  0
   10.3980    3.5280   -1.2650 O   0  0  0  0  0
   12.3020    0.8600   -0.3510 C   0  0  0  0  0
   12.2050   -0.5670    0.1930 C   0  0  0  0  0
   13.4900   -1.3280   -0.1370 C   0  0  0  0  0
   13.3930   -2.7540    0.4070 C   0  0  0  0  0
   12.1370    3.8240    0.0820 N   0  0  0  0  0
   -8.8210    3.2040   -3.4910 H   0  0  0  0  0
   -9.5820    1.7250   -3.4790 H   0  0  0  0  0
   -8.4080    3.0950   -1.1470 H   0  0  0  0  0
   -9.8280    0.4120   -1.4470 H   0  0  0  0  0
   -8.9610    0.9380    0.0150 H   0  0  0  0  0
  -10.4570    2.9070    0.1950 H   0  0  0  0  0
  -11.3250    2.3810   -1.2680 H   0  0  0  0  0
  -11.9500    0.2650   -0.1360 H   0  0  0  0  0
  -11.0830    0.7910    1.3270 H   0  0  0  0  0
  -12.9530    2.7900    0.6340 H   0  0  0  0  0
  -12.8180   -0.5140    1.7420 H   0  0  0  0  0
  -14.2700   -0.4650    2.5860 H   0  0  0  0  0
  -14.9710    2.8410    1.8130 H   0  0  0  0  0
  -15.5160    1.4760    2.6270 H   0  0  0  0  0
   -6.4640    1.8140   -0.2850 H   0  0  0  0  0
   -5.3440   -0.1500   -2.1340 H   0  0  0  0  0
   -4.7010    2.0700   -3.1130 H   0  0  0  0  0
   -3.2600    2.3980   -0.4420 H   0  0  0  0  0
   -3.1110    3.4860   -1.8420 H   0  0  0  0  0
   -4.6660    3.3450   -0.9860 H   0  0  0  0  0
   -3.2340    0.0310   -3.2800 H   0  0  0  0  0
   -2.3200    1.5580   -3.3160 H   0  0  0  0  0
   -2.3670    0.5850   -1.8270 H   0  0  0  0  0
   -3.3200   -1.1770   -1.1350 H   0  0  0  0  0
   -2.8760   -0.5220    1.6780 H   0  0  0  0  0
   -1.1920   -2.2970    1.5980 H   0  0  0  0  0
   -1.7970   -2.8410    0.0150 H   0  0  0  0  0
   -4.9530   -1.9480    1.6500 H   0  0  0  0  0
   -4.0050   -3.2380    0.8710 H   0  0  0  0  0
   -2.4110   -3.1640    2.8190 H   0  0  0  0  0
   -4.5530   -1.3610    4.0310 H   0  0  0  0  0
   -3.0900   -1.9580    4.8490 H   0  0  0  0  0
   -2.9470   -0.8150    3.4920 H   0  0  0  0  0
   -4.2600   -4.8140    2.7300 H   0  0  0  0  0
   -3.9440   -4.2990    4.4040 H   0  0  0  0  0
   -5.3430   -3.6430    3.5200 H   0  0  0  0  0
   -0.7520   -0.1330    0.5060 H   0  0  0  0  0
    0.7140   -2.4000    0.4700 H   0  0  0  0  0
    0.5230   -1.1620   -2.3120 H   0  0  0  0  0
    1.7660   -2.3300   -1.8050 H   0  0  0  0  0
   -1.7250   -1.8590   -2.7410 H   0  0  0  0  0
    1.1240   -4.6330   -1.1970 H   0  0  0  0  0
   -3.2740   -3.7140   -3.2140 H   0  0  0  0  0
   -0.4260   -6.4870   -1.6700 H   0  0  0  0  0
   -2.6260   -6.0270   -2.6740 H   0  0  0  0  0
    3.1950   -1.6420   -0.2570 H   0  0  0  0  0
    3.5150    1.2470    0.0280 H   0  0  0  0  0
    4.4630   -0.7150    2.1630 H   0  0  0  0  0
    4.9670    0.9890    2.0610 H   0  0  0  0  0
    2.6010    1.7010    2.2610 H   0  0  0  0  0
    2.0960   -0.0030    2.3630 H   0  0  0  0  0
    2.4040    1.0450    5.8640 H   0  0  0  0  0
    6.1750    1.5820    0.3040 H   0  0  0  0  0
    7.6290   -0.5630   -1.0430 H   0  0  0  0  0
    7.2510    2.1720   -2.3430 H   0  0  0  0  0
    8.3250    0.8810   -2.9340 H   0  0  0  0  0
    6.5620    0.6400   -2.9300 H   0  0  0  0  0
   10.0480    0.5110   -1.5490 H   0  0  0  0  0
   10.8340    1.5770    1.0530 H   0  0  0  0  0
   12.4380    0.8280   -1.4320 H   0  0  0  0  0
   13.1520    1.3660    0.1080 H   0  0  0  0  0
   12.0690   -0.5350    1.2740 H   0  0  0  0  0
   11.3550   -1.0730   -0.2650 H   0  0  0  0  0
   13.6260   -1.3590   -1.2180 H   0  0  0  0  0
   14.3400   -0.8210    0.3210 H   0  0  0  0  0
   13.2570   -2.7230    1.4880 H   0  0  0  0  0
   12.5430   -3.2600   -0.0510 H   0  0  0  0  0
   14.3090   -3.2960    0.1710 H   0  0  0  0  0
   12.7460    3.4490    0.7360 H   0  0  0  0  0
   12.2290    4.7500   -0.1930 H   0  0  0  0  0
  1  2  1  0  0  0
  1 60  1  0  0  0
  1 61  1  0  0  0
  2  3  1  0  0  0
  2  5  1  0  0  0
  2 62  1  0  0  0
  3  4  2  0  0  0
  3 12  1  0  0  0
  5  6  1  0  0  0
  5 63  1  0  0  0
  5 64  1  0  0  0
  6  7  1  0  0  0
  6 65  1  0  0  0
  6 66  1  0  0  0
  7  8  1  0  0  0
  7 67  1  0  0  0
  7 68  1  0  0  0
  8  9  1  0  0  0
  8 69  1  0  0  0
  9 10  1  0  0  0
  9 11  2  0  0  0
 10 70  1  0  0  0
 10 71  1  0  0  0
 11 72  1  0  0  0
 11 73  1  0  0  0
 12 13  1  0  0  0
 12 74  1  0  0  0
 13 14  1  0  0  0
 13 16  1  0  0  0
 13 75  1  0  0  0
 14 15  2  0  0  0
 14 19  1  0  0  0
 16 17  1  0  0  0
 16 18  1  0  0  0
 16 76  1  0  0  0
 17 77  1  0  0  0
 17 78  1  0  0  0
 17 79  1  0  0  0
 18 80  1  0  0  0
 18 81  1  0  0  0
 18 82  1  0  0  0
 19 20  1  0  0  0
 19 83  1  0  0  0
 20 21  1  0  0  0
 20 22  1  0  0  0
 20 84  1  0  0  0
 21 85  1  0  0  0
 21 86  1  0  0  0
 21 26  1  0  0  0
 22 23  1  0  0  0
 22 87  1  0  0  0
 22 88  1  0  0  0
 23 24  1  0  0  0
 23 25  1  0  0  0
 23 89  1  0  0  0
 24 90  1  0  0  0
 24 91  1  0  0  0
 24 92  1  0  0  0
 25 93  1  0  0  0
 25 94  1  0  0  0
 25 95  1  0  0  0
 26 27  1  0  0  0
 26 96  1  0  0  0
 27 28  1  0  0  0
 27 30  1  0  0  0
 27 97  1  0  0  0
 28 29  2  0  0  0
 28 37  1  0  0  0
 30 31  1  0  0  0
 30 98  1  0  0  0
 30 99  1  0  0  0
 31 32  2  0  0  0
 31 33  1  0  0  0
 32 34  1  0  0  0
 32100  1  0  0  0
 33 35  2  0  0  0
 33101  1  0  0  0
 34 36  2  0  0  0
 34102  1  0  0  0
 35 36  1  0  0  0
 35103  1  0  0  0
 36104  1  0  0  0
 37 38  1  0  0  0
 37105  1  0  0  0
 38 39  1  0  0  0
 38 41  1  0  0  0
 38106  1  0  0  0
 39 40  2  0  0  0
 39 46  1  0  0  0
 41 42  1  0  0  0
 41107  1  0  0  0
 41108  1  0  0  0
 42 43  1  0  0  0
 42109  1  0  0  0
 42110  1  0  0  0
 43 44  2  0  0  0
 43 45  1  0  0  0
 45111  1  0  0  0
 46 47  1  0  0  0
 46112  1  0  0  0
 47 48  1  0  0  0
 47 50  1  0  0  0
 47113  1  0  0  0
 48 49  2  0  0  0
 48 51  1  0  0  0
 50114  1  0  0  0
 50115  1  0  0  0
 50116  1  0  0  0
 51 52  1  0  0  0
 51117  1  0  0  0
 52 53  1  0  0  0
 52 55  1  0  0  0
 52118  1  0  0  0
 53 54  2  0  0  0
 53 59  1  0  0  0
 55 56  1  0  0  0
 55119  1  0  0  0
 55120  1  0  0  0
 56 57  1  0  0  0
 56121  1  0  0  0
 56122  1  0  0  0
 57 58  1  0  0  0
 57123  1  0  0  0
 57124  1  0  0  0
 58125  1  0  0  0
 58126  1  0  0  0
 58127  1  0  0  0
 59128  1  0  0  0
 59129  1  0  0  0
M  CHG  1  11   1
M  END
$$$$
