lig
 OpenBabel01242606463D

130130  0  0  1  0  0  0  0  0999 V2000
  -12.1570   14.4210   31.7070 N   0  0  0  0  0  4  0  0  0  0  0  0
  -11.4020   15.2090   32.7300 C   0  0  2  0  0  0  0  0  0  0  0  0
   -7.5900   15.8060   33.0270 C   0  0  1  0  0  0  0  0  0  0  0  0
   -4.7960   17.6500   34.8460 C   0  0  1  0  0  0  0  0  0  0  0  0
   -1.1950   17.2470   36.0270 C   0  0  1  0  0  0  0  0  0  0  0  0
   -0.7990   15.6310   32.5500 C   0  0  1  0  0  0  0  0  0  0  0  0
    2.6160   16.5810   31.2280 C   0  0  1  0  0  0  0  0  0  0  0  0
    5.7040   16.8510   33.4670 C   0  0  1  0  0  0  0  0  0  0  0  0
   -9.8710   15.0340   32.4760 C   0  0  0  0  0  0  0  0  0  0  0  0
   -9.4650   14.2480   31.5990 O   0  0  0  0  0  0  0  0  0  0  0  0
  -11.8320   14.7540   34.1300 C   0  0  0  0  0  0  0  0  0  0  0  0
   -7.2020   16.1110   31.4900 C   0  0  0  0  0  0  0  0  0  0  0  0
   -5.3220   17.4130   36.2830 C   0  0  0  0  0  0  0  0  0  0  0  0
   -0.9570   16.0730   37.0240 C   0  0  0  0  0  0  0  0  0  0  0  0
   -1.4500   16.5920   31.5170 C   0  0  0  0  0  0  0  0  0  0  0  0
    2.8010   17.3870   29.9570 C   0  0  0  0  0  0  0  0  0  0  0  0
    5.0520   17.2430   34.8180 C   0  0  0  0  0  0  0  0  0  0  0  0
  -13.1320   13.8850   34.2240 C   0  0  0  0  0  0  0  0  0  0  0  0
   -7.1860   17.6130   31.1950 C   0  0  0  0  0  0  0  0  0  0  0  0
   -5.8030   15.5540   31.1590 C   0  0  0  0  0  0  0  0  0  0  0  0
   -5.3100   15.9330   36.7570 C   0  0  0  0  0  0  0  0  0  0  0  0
    0.4510   15.8480   37.4110 C   0  0  0  0  0  0  0  0  0  0  0  0
   -1.2390   16.2820   30.0480 C   0  0  0  0  0  0  0  0  0  0  0  0
    6.0050   17.6840   35.9840 C   0  0  0  0  0  0  0  0  0  0  0  0
  -14.3600   14.5570   34.9340 C   0  0  0  0  0  0  0  0  0  0  0  0
    0.9210   16.2640   38.6490 C   0  0  0  0  0  0  0  0  0  0  0  0
   -4.8450   14.9600   35.6740 C   0  0  0  0  0  0  0  0  0  0  0  0
    1.3230   15.1870   36.5510 C   0  0  0  0  0  0  0  0  0  0  0  0
   -4.4330   15.7890   37.9870 C   0  0  0  0  0  0  0  0  0  0  0  0
   -2.3800   15.4550   29.4360 C   0  0  0  0  0  0  0  0  0  0  0  0
    5.7670   16.9280   37.3500 C   0  0  0  0  0  0  0  0  0  0  0  0
    5.6370   17.9070   38.4980 C   0  0  0  0  0  0  0  0  0  0  0  0
    2.2550   16.0130   39.0450 C   0  0  0  0  0  0  0  0  0  0  0  0
    2.6740   14.9290   36.9330 C   0  0  0  0  0  0  0  0  0  0  0  0
  -14.0900   15.8800   35.5120 N   0  0  0  0  0  0  0  0  0  0  0  0
   -2.8420   15.8000   28.3330 O   0  0  0  0  0  0  0  0  0  0  0  0
   -2.8270   14.4470   30.0460 O   0  0  0  0  0  0  0  0  0  0  0  0
  -14.0830   16.1520   36.8200 C   0  0  0  0  0  0  0  0  0  0  0  0
    3.1310   15.3430   38.1840 C   0  0  0  0  0  0  0  0  0  0  0  0
  -14.3160   15.1800   37.6860 N   0  0  0  0  0  0  0  0  0  0  0  0
  -13.9670   17.4140   37.2580 N   0  0  0  0  0  4  0  0  0  0  0  0
   -6.8820   16.7290   34.0530 C   0  0  0  0  0  0  0  0  0  0  0  0
   -9.0450   15.8140   33.1920 N   0  0  0  0  0  0  0  0  0  0  0  0
   -7.4980   17.3830   34.8850 O   0  0  0  0  0  0  0  0  0  0  0  0
   -3.2830   17.5060   34.7570 C   0  0  0  0  0  0  0  0  0  0  0  0
   -5.5770   16.8660   33.9070 N   0  0  0  0  0  0  0  0  0  0  0  0
    0.2400   17.7060   34.1310 O   0  0  0  0  0  0  0  0  0  0  0  0
   -0.6890   17.0260   34.5740 C   0  0  0  0  0  0  0  0  0  0  0  0
   -2.6460   17.4290   35.9120 N   0  0  0  0  0  0  0  0  0  0  0  0
    1.4460   14.8150   32.9550 O   0  0  0  0  0  0  0  0  0  0  0  0
    0.7160   15.5820   32.3240 C   0  0  0  0  0  0  0  0  0  0  0  0
   -1.2280   16.0100   33.8990 N   0  0  0  0  0  0  0  0  0  0  0  0
    3.2750   18.1960   32.9310 O   0  0  0  0  0  0  0  0  0  0  0  0
    3.5400   17.1510   32.3340 C   0  0  0  0  0  0  0  0  0  0  0  0
    1.2020   16.5210   31.5290 N   0  0  0  0  0  0  0  0  0  0  0  0
    6.3530   14.7800   34.5740 O   0  0  0  0  0  0  0  0  0  0  0  0
    6.5970   15.6130   33.6530 C   0  0  0  0  0  0  0  0  0  0  0  0
    4.6540   16.4550   32.5370 N   0  0  0  0  0  0  0  0  0  0  0  0
    7.5760   15.5100   32.8720 N   0  0  0  0  0  0  0  0  0  0  0  0
  -12.5520   13.5620   32.1130 H   0  0  0  0  0  0  0  0  0  0  0  0
   -5.1150   16.3990   33.1750 H   0  0  0  0  0  0  0  0  0  0  0  0
  -11.5380   14.1640   30.9230 H   0  0  0  0  0  0  0  0  0  0  0  0
  -13.9010   16.6270   34.9020 H   0  0  0  0  0  0  0  0  0  0  0  0
  -14.4900   14.2510   37.3640 H   0  0  0  0  0  0  0  0  0  0  0  0
  -14.3130   15.3730   38.6690 H   0  0  0  0  0  0  0  0  0  0  0  0
  -13.8810   18.1700   36.6110 H   0  0  0  0  0  0  0  0  0  0  0  0
  -13.9660   17.5940   38.2440 H   0  0  0  0  0  0  0  0  0  0  0  0
   -9.3850   16.4160   33.8880 H   0  0  0  0  0  0  0  0  0  0  0  0
  -12.9190   15.0590   31.3640 H   0  0  0  0  0  0  0  0  0  0  0  0
   -3.1740   17.4780   36.7320 H   0  0  0  0  0  0  0  0  0  0  0  0
   -1.9700   15.5010   34.2910 H   0  0  0  0  0  0  0  0  0  0  0  0
    0.6060   17.1910   31.1280 H   0  0  0  0  0  0  0  0  0  0  0  0
    4.8030   15.6620   31.9940 H   0  0  0  0  0  0  0  0  0  0  0  0
    8.1680   14.6890   32.9960 H   0  0  0  0  0  0  0  0  0  0  0  0
    7.7730   16.1810   32.1300 H   0  0  0  0  0  0  0  0  0  0  0  0
  -11.6200   16.2539   32.6559 H   0  0  0  0  0  0  0  0  0  0  0  0
   -7.2216   14.8260   33.2479 H   0  0  0  0  0  0  0  0  0  0  0  0
   -4.9461   18.6695   34.5580 H   0  0  0  0  0  0  0  0  0  0  0  0
   -0.6471   18.0742   36.4275 H   0  0  0  0  0  0  0  0  0  0  0  0
   -1.1296   14.6216   32.4207 H   0  0  0  0  0  0  0  0  0  0  0  0
    2.9240   15.5611   31.1288 H   0  0  0  0  0  0  0  0  0  0  0  0
    6.2709   17.6847   33.1086 H   0  0  0  0  0  0  0  0  0  0  0  0
  -11.9863   15.6318   34.7221 H   0  0  0  0  0  0  0  0  0  0  0  0
  -11.0439   14.1152   34.4703 H   0  0  0  0  0  0  0  0  0  0  0  0
   -7.9491   15.6357   30.8893 H   0  0  0  0  0  0  0  0  0  0  0  0
   -6.3307   17.7669   36.3287 H   0  0  0  0  0  0  0  0  0  0  0  0
   -4.6545   17.9383   36.9337 H   0  0  0  0  0  0  0  0  0  0  0  0
   -1.3226   15.1753   36.5708 H   0  0  0  0  0  0  0  0  0  0  0  0
   -1.4716   16.3400   37.9233 H   0  0  0  0  0  0  0  0  0  0  0  0
   -2.5047   16.5906   31.6973 H   0  0  0  0  0  0  0  0  0  0  0  0
   -0.9625   17.5318   31.6717 H   0  0  0  0  0  0  0  0  0  0  0  0
    2.4759   18.3930   30.1221 H   0  0  0  0  0  0  0  0  0  0  0  0
    2.2226   16.9499   29.1701 H   0  0  0  0  0  0  0  0  0  0  0  0
    3.8350   17.3869   29.6820 H   0  0  0  0  0  0  0  0  0  0  0  0
    4.4954   16.3965   35.1623 H   0  0  0  0  0  0  0  0  0  0  0  0
    4.4720   18.1146   34.5969 H   0  0  0  0  0  0  0  0  0  0  0  0
  -12.8907   12.9925   34.7626 H   0  0  0  0  0  0  0  0  0  0  0  0
  -13.4401   13.7171   33.2131 H   0  0  0  0  0  0  0  0  0  0  0  0
   -6.4384   18.0867   31.7964 H   0  0  0  0  0  0  0  0  0  0  0  0
   -8.1443   18.0313   31.4221 H   0  0  0  0  0  0  0  0  0  0  0  0
   -6.9641   17.7709   30.1602 H   0  0  0  0  0  0  0  0  0  0  0  0
   -5.0715   16.0413   31.7692 H   0  0  0  0  0  0  0  0  0  0  0  0
   -5.5829   15.7326   30.1272 H   0  0  0  0  0  0  0  0  0  0  0  0
   -5.7836   14.5015   31.3508 H   0  0  0  0  0  0  0  0  0  0  0  0
   -6.3221   15.6775   36.9920 H   0  0  0  0  0  0  0  0  0  0  0  0
   -1.1628   17.2054   29.5128 H   0  0  0  0  0  0  0  0  0  0  0  0
   -0.3454   15.6987   29.9704 H   0  0  0  0  0  0  0  0  0  0  0  0
    5.8631   18.7310   36.1530 H   0  0  0  0  0  0  0  0  0  0  0  0
    6.9989   17.4399   35.6718 H   0  0  0  0  0  0  0  0  0  0  0  0
  -14.6841   13.9096   35.7218 H   0  0  0  0  0  0  0  0  0  0  0  0
  -15.1014   14.7051   34.1768 H   0  0  0  0  0  0  0  0  0  0  0  0
    0.2866   16.7646   39.2908 H   0  0  0  0  0  0  0  0  0  0  0  0
   -3.8325   15.1804   35.4074 H   0  0  0  0  0  0  0  0  0  0  0  0
   -5.4708   15.0603   34.8119 H   0  0  0  0  0  0  0  0  0  0  0  0
   -4.9062   13.9581   36.0445 H   0  0  0  0  0  0  0  0  0  0  0  0
    0.9884   14.8792   35.6246 H   0  0  0  0  0  0  0  0  0  0  0  0
   -3.4248   16.0472   37.7384 H   0  0  0  0  0  0  0  0  0  0  0  0
   -4.4670   14.7770   38.3328 H   0  0  0  0  0  0  0  0  0  0  0  0
   -4.7887   16.4412   38.7570 H   0  0  0  0  0  0  0  0  0  0  0  0
    6.5948   16.2766   37.5380 H   0  0  0  0  0  0  0  0  0  0  0  0
    4.8581   16.3683   37.2754 H   0  0  0  0  0  0  0  0  0  0  0  0
    6.5393   18.4754   38.5860 H   0  0  0  0  0  0  0  0  0  0  0  0
    5.4638   17.3698   39.4070 H   0  0  0  0  0  0  0  0  0  0  0  0
    4.8160   18.5676   38.3122 H   0  0  0  0  0  0  0  0  0  0  0  0
    2.5836   16.3250   39.9722 H   0  0  0  0  0  0  0  0  0  0  0  0
    3.3103   14.4379   36.2858 H   0  0  0  0  0  0  0  0  0  0  0  0
   -2.4660   14.2033   30.8756 H   0  0  0  0  0  0  0  0  0  0  0  0
    4.1046   15.1572   38.4714 H   0  0  0  0  0  0  0  0  0  0  0  0
   -2.9026   18.3545   34.2277 H   0  0  0  0  0  0  0  0  0  0  0  0
   -3.1073   16.5727   34.2642 H   0  0  0  0  0  0  0  0  0  0  0  0
  1 60  1  0  0  0  0
  1  2  1  0  0  0  0
  2 11  1  0  0  0  0
  2 76  1  6  0  0  0
  3 43  1  0  0  0  0
  3 42  1  0  0  0  0
  3 77  1  1  0  0  0
  4 13  1  0  0  0  0
  4 78  1  6  0  0  0
  5 14  1  0  0  0  0
  5 79  1  1  0  0  0
  6 52  1  0  0  0  0
  6 80  1  6  0  0  0
  7 55  1  0  0  0  0
  7 54  1  0  0  0  0
  7 81  1  6  0  0  0
  8 57  1  0  0  0  0
  8 17  1  0  0  0  0
  8 82  1  6  0  0  0
  9  2  1  0  0  0  0
  9 43  1  0  0  0  0
 10  9  2  0  0  0  0
 11 18  1  0  0  0  0
 11 83  1  0  0  0  0
 11 84  1  0  0  0  0
 12  3  1  0  0  0  0
 12 85  1  0  0  0  0
 13 21  1  0  0  0  0
 13 86  1  0  0  0  0
 13 87  1  0  0  0  0
 14 22  1  0  0  0  0
 14 88  1  0  0  0  0
 14 89  1  0  0  0  0
 15  6  1  0  0  0  0
 15 90  1  0  0  0  0
 15 91  1  0  0  0  0
 16  7  1  0  0  0  0
 16 92  1  0  0  0  0
 16 93  1  0  0  0  0
 16 94  1  0  0  0  0
 17 24  1  0  0  0  0
 17 95  1  0  0  0  0
 17 96  1  0  0  0  0
 18 25  1  0  0  0  0
 18 97  1  0  0  0  0
 18 98  1  0  0  0  0
 19 12  1  0  0  0  0
 19 99  1  0  0  0  0
 19100  1  0  0  0  0
 19101  1  0  0  0  0
 20 12  1  0  0  0  0
 20102  1  0  0  0  0
 20103  1  0  0  0  0
 20104  1  0  0  0  0
 21 29  1  0  0  0  0
 21105  1  0  0  0  0
 22 26  1  0  0  0  0
 23 15  1  0  0  0  0
 23106  1  0  0  0  0
 23107  1  0  0  0  0
 24 31  1  0  0  0  0
 24108  1  0  0  0  0
 24109  1  0  0  0  0
 25 35  1  0  0  0  0
 25110  1  0  0  0  0
 25111  1  0  0  0  0
 26 33  2  0  0  0  0
 26112  1  0  0  0  0
 27 21  1  0  0  0  0
 27113  1  0  0  0  0
 27114  1  0  0  0  0
 27115  1  0  0  0  0
 28 34  1  0  0  0  0
 28 22  2  0  0  0  0
 28116  1  0  0  0  0
 29117  1  0  0  0  0
 29118  1  0  0  0  0
 29119  1  0  0  0  0
 30 37  1  0  0  0  0
 30 23  1  0  0  0  0
 31 32  1  0  0  0  0
 31120  1  0  0  0  0
 31121  1  0  0  0  0
 32122  1  0  0  0  0
 32123  1  0  0  0  0
 32124  1  0  0  0  0
 33125  1  0  0  0  0
 34 39  2  0  0  0  0
 34126  1  0  0  0  0
 35 38  1  0  0  0  0
 36 30  2  0  0  0  0
 37127  1  0  0  0  0
 38 41  2  0  0  0  0
 38 40  1  0  0  0  0
 39 33  1  0  0  0  0
 39128  1  0  0  0  0
 40 65  1  0  0  0  0
 41 67  1  0  0  0  0
 42 44  2  0  0  0  0
 43 68  1  0  0  0  0
 45  4  1  0  0  0  0
 45 49  1  0  0  0  0
 45129  1  0  0  0  0
 45130  1  0  0  0  0
 46 42  1  0  0  0  0
 46  4  1  0  0  0  0
 47 48  2  0  0  0  0
 48  5  1  0  0  0  0
 49  5  1  0  0  0  0
 49 70  1  0  0  0  0
 51  6  1  0  0  0  0
 51 50  2  0  0  0  0
 52 71  1  0  0  0  0
 52 48  1  0  0  0  0
 54 58  1  0  0  0  0
 54 53  2  0  0  0  0
 55 51  1  0  0  0  0
 57 56  2  0  0  0  0
 58  8  1  0  0  0  0
 59 74  1  0  0  0  0
 59 57  1  0  0  0  0
 61 46  1  0  0  0  0
 62  1  1  0  0  0  0
 63 35  1  0  0  0  0
 64 40  1  0  0  0  0
 66 41  1  0  0  0  0
 69  1  1  0  0  0  0
 72 55  1  0  0  0  0
 73 58  1  0  0  0  0
 75 59  1  0  0  0  0
M  END
