0q4
  Mrv15b2301242606462D          

130130  0  0  1  0            999 V2000
   -7.4695    7.6506    0.0000 N   0  0  0  0  0  4  0  0  0  0  0  0
   -7.4695    8.4756    0.0000 C   0  0  2  0  0  0  0  0  0  0  0  0
   -5.3261    8.8881    0.0000 C   0  0  1  0  0  0  0  0  0  0  0  0
   -3.1827    8.4756    0.0000 C   0  0  1  0  0  0  0  0  0  0  0  0
   -1.0393    8.8881    0.0000 C   0  0  1  0  0  0  0  0  0  0  0  0
    1.1041    8.4756    0.0000 C   0  0  1  0  0  0  0  0  0  0  0  0
    3.2475    8.8881    0.0000 C   0  0  1  0  0  0  0  0  0  0  0  0
    5.3910    8.4756    0.0000 C   0  0  1  0  0  0  0  0  0  0  0  0
   -6.7551    8.8881    0.0000 C   0  0  0  0  0  0  0  0  0  0  0  0
   -6.7551    9.7131    0.0000 O   0  0  0  0  0  0  0  0  0  0  0  0
   -8.1840    8.8881    0.0000 C   0  0  0  0  0  0  0  0  0  0  0  0
   -5.3261    9.7131    0.0000 C   0  0  0  0  0  0  0  0  0  0  0  0
   -3.1827    7.6506    0.0000 C   0  0  0  0  0  0  0  0  0  0  0  0
   -1.0393    9.7131    0.0000 C   0  0  0  0  0  0  0  0  0  0  0  0
    1.1041    7.6506    0.0000 C   0  0  0  0  0  0  0  0  0  0  0  0
    3.2475    9.7131    0.0000 C   0  0  0  0  0  0  0  0  0  0  0  0
    6.1054    8.8881    0.0000 C   0  0  0  0  0  0  0  0  0  0  0  0
   -8.8985    8.4756    0.0000 C   0  0  0  0  0  0  0  0  0  0  0  0
   -4.6116   10.1256    0.0000 C   0  0  0  0  0  0  0  0  0  0  0  0
   -6.0406   10.1256    0.0000 C   0  0  0  0  0  0  0  0  0  0  0  0
   -2.4682    7.2381    0.0000 C   0  0  0  0  0  0  0  0  0  0  0  0
   -1.7538   10.1256    0.0000 C   0  0  0  0  0  0  0  0  0  0  0  0
    1.8186    7.2381    0.0000 C   0  0  0  0  0  0  0  0  0  0  0  0
    6.8199    8.4756    0.0000 C   0  0  0  0  0  0  0  0  0  0  0  0
   -9.6129    8.8881    0.0000 C   0  0  0  0  0  0  0  0  0  0  0  0
   -2.4682    9.7131    0.0000 C   0  0  0  0  0  0  0  0  0  0  0  0
   -2.4682    6.4131    0.0000 C   0  0  0  0  0  0  0  0  0  0  0  0
   -1.7538   10.9506    0.0000 C   0  0  0  0  0  0  0  0  0  0  0  0
   -1.7538    7.6506    0.0000 C   0  0  0  0  0  0  0  0  0  0  0  0
    1.8186    6.4131    0.0000 C   0  0  0  0  0  0  0  0  0  0  0  0
    7.5344    8.8881    0.0000 C   0  0  0  0  0  0  0  0  0  0  0  0
    8.2488    8.4756    0.0000 C   0  0  0  0  0  0  0  0  0  0  0  0
   -3.1827   10.1256    0.0000 C   0  0  0  0  0  0  0  0  0  0  0  0
   -2.4682   11.3631    0.0000 C   0  0  0  0  0  0  0  0  0  0  0  0
  -10.3274    8.4756    0.0000 N   0  0  0  0  0  0  0  0  0  0  0  0
    2.5331    6.0006    0.0000 O   0  0  0  0  0  0  0  0  0  0  0  0
    1.1041    6.0006    0.0000 O   0  0  0  0  0  0  0  0  0  0  0  0
  -11.0419    8.8881    0.0000 C   0  0  0  0  0  0  0  0  0  0  0  0
   -3.1827   10.9506    0.0000 C   0  0  0  0  0  0  0  0  0  0  0  0
  -11.7563    8.4756    0.0000 N   0  0  0  0  0  0  0  0  0  0  0  0
  -11.0419    9.7131    0.0000 N   0  0  0  0  0  4  0  0  0  0  0  0
   -4.6116    8.4756    0.0000 C   0  0  0  0  0  0  0  0  0  0  0  0
   -6.0406    8.4756    0.0000 N   0  0  0  0  0  0  0  0  0  0  0  0
   -4.6116    7.6506    0.0000 O   0  0  0  0  0  0  0  0  0  0  0  0
   -2.4682    8.8881    0.0000 C   0  0  0  0  0  0  0  0  0  0  0  0
   -3.8972    8.8881    0.0000 N   0  0  0  0  0  0  0  0  0  0  0  0
   -0.3248    7.6506    0.0000 O   0  0  0  0  0  0  0  0  0  0  0  0
   -0.3248    8.4756    0.0000 C   0  0  0  0  0  0  0  0  0  0  0  0
   -1.7538    8.4756    0.0000 N   0  0  0  0  0  0  0  0  0  0  0  0
    1.8186    9.7131    0.0000 O   0  0  0  0  0  0  0  0  0  0  0  0
    1.8186    8.8881    0.0000 C   0  0  0  0  0  0  0  0  0  0  0  0
    0.3897    8.8881    0.0000 N   0  0  0  0  0  0  0  0  0  0  0  0
    3.9620    7.6506    0.0000 O   0  0  0  0  0  0  0  0  0  0  0  0
    3.9620    8.4756    0.0000 C   0  0  0  0  0  0  0  0  0  0  0  0
    2.5331    8.4756    0.0000 N   0  0  0  0  0  0  0  0  0  0  0  0
    4.6765    7.2381    0.0000 O   0  0  0  0  0  0  0  0  0  0  0  0
    5.3910    7.6506    0.0000 C   0  0  0  0  0  0  0  0  0  0  0  0
    4.6765    8.8881    0.0000 N   0  0  0  0  0  0  0  0  0  0  0  0
    6.1054    7.2381    0.0000 N   0  0  0  0  0  0  0  0  0  0  0  0
   -8.2945    7.6506    0.0000 H   0  0  0  0  0  0  0  0  0  0  0  0
   -3.9213    9.7127    0.0000 H   0  0  0  0  0  0  0  0  0  0  0  0
   -7.4695    6.8256    0.0000 H   0  0  0  0  0  0  0  0  0  0  0  0
  -10.7624    7.7745    0.0000 H   0  0  0  0  0  0  0  0  0  0  0  0
  -11.7563    7.6506    0.0000 H   0  0  0  0  0  0  0  0  0  0  0  0
  -12.4708    8.8881    0.0000 H   0  0  0  0  0  0  0  0  0  0  0  0
  -11.7563   10.1256    0.0000 H   0  0  0  0  0  0  0  0  0  0  0  0
  -10.3274   10.1256    0.0000 H   0  0  0  0  0  0  0  0  0  0  0  0
   -6.4531    7.7611    0.0000 H   0  0  0  0  0  0  0  0  0  0  0  0
   -6.6445    7.6506    0.0000 H   0  0  0  0  0  0  0  0  0  0  0  0
   -2.1663    7.7611    0.0000 H   0  0  0  0  0  0  0  0  0  0  0  0
    0.8022    9.6025    0.0000 H   0  0  0  0  0  0  0  0  0  0  0  0
    2.5331    9.3006    0.0000 H   0  0  0  0  0  0  0  0  0  0  0  0
    4.6765    9.7131    0.0000 H   0  0  0  0  0  0  0  0  0  0  0  0
    5.7171    6.5102    0.0000 H   0  0  0  0  0  0  0  0  0  0  0  0
    6.4468    6.4870    0.0000 H   0  0  0  0  0  0  0  0  0  0  0  0
   -8.1840    8.0631    0.0000 H   0  0  0  0  0  0  0  0  0  0  0  0
   -5.3261    8.0631    0.0000 H   0  0  0  0  0  0  0  0  0  0  0  0
   -2.4682    8.0631    0.0000 H   0  0  0  0  0  0  0  0  0  0  0  0
   -0.3248    9.3006    0.0000 H   0  0  0  0  0  0  0  0  0  0  0  0
    0.3897    8.0631    0.0000 H   0  0  0  0  0  0  0  0  0  0  0  0
    3.2475    8.0631    0.0000 H   0  0  0  0  0  0  0  0  0  0  0  0
    6.1054    8.0631    0.0000 H   0  0  0  0  0  0  0  0  0  0  0  0
   -7.8137    9.6253    0.0000 H   0  0  0  0  0  0  0  0  0  0  0  0
   -8.5543    9.6253    0.0000 H   0  0  0  0  0  0  0  0  0  0  0  0
   -4.6116    9.3006    0.0000 H   0  0  0  0  0  0  0  0  0  0  0  0
   -4.0063    7.6026    0.0000 H   0  0  0  0  0  0  0  0  0  0  0  0
   -3.6360    6.9613    0.0000 H   0  0  0  0  0  0  0  0  0  0  0  0
   -0.4073   10.2434    0.0000 H   0  0  0  0  0  0  0  0  0  0  0  0
   -0.8960   10.5255    0.0000 H   0  0  0  0  0  0  0  0  0  0  0  0
    0.4721    7.1203    0.0000 H   0  0  0  0  0  0  0  0  0  0  0  0
    0.9609    6.8381    0.0000 H   0  0  0  0  0  0  0  0  0  0  0  0
    4.0725    9.7131    0.0000 H   0  0  0  0  0  0  0  0  0  0  0  0
    3.2475   10.5381    0.0000 H   0  0  0  0  0  0  0  0  0  0  0  0
    2.4225    9.7131    0.0000 H   0  0  0  0  0  0  0  0  0  0  0  0
    6.4757    9.6253    0.0000 H   0  0  0  0  0  0  0  0  0  0  0  0
    5.7352    9.6253    0.0000 H   0  0  0  0  0  0  0  0  0  0  0  0
   -9.5304    7.9453    0.0000 H   0  0  0  0  0  0  0  0  0  0  0  0
   -9.0417    7.6631    0.0000 H   0  0  0  0  0  0  0  0  0  0  0  0
   -3.8147    9.9120    0.0000 H   0  0  0  0  0  0  0  0  0  0  0  0
   -4.1991   10.8400    0.0000 H   0  0  0  0  0  0  0  0  0  0  0  0
   -5.1950   10.7089    0.0000 H   0  0  0  0  0  0  0  0  0  0  0  0
   -5.3261   10.5381    0.0000 H   0  0  0  0  0  0  0  0  0  0  0  0
   -6.0406   10.9506    0.0000 H   0  0  0  0  0  0  0  0  0  0  0  0
   -6.7551   10.5381    0.0000 H   0  0  0  0  0  0  0  0  0  0  0  0
   -1.7538    6.8256    0.0000 H   0  0  0  0  0  0  0  0  0  0  0  0
    2.6422    7.2860    0.0000 H   0  0  0  0  0  0  0  0  0  0  0  0
    2.2719    7.9273    0.0000 H   0  0  0  0  0  0  0  0  0  0  0  0
    6.9632    7.6631    0.0000 H   0  0  0  0  0  0  0  0  0  0  0  0
    7.4519    7.9453    0.0000 H   0  0  0  0  0  0  0  0  0  0  0  0
   -9.2427    9.6253    0.0000 H   0  0  0  0  0  0  0  0  0  0  0  0
   -9.9832    9.6253    0.0000 H   0  0  0  0  0  0  0  0  0  0  0  0
   -1.7538    9.3006    0.0000 H   0  0  0  0  0  0  0  0  0  0  0  0
   -3.2651    6.6266    0.0000 H   0  0  0  0  0  0  0  0  0  0  0  0
   -2.8807    5.6986    0.0000 H   0  0  0  0  0  0  0  0  0  0  0  0
   -1.8849    5.8297    0.0000 H   0  0  0  0  0  0  0  0  0  0  0  0
   -1.3642   11.6778    0.0000 H   0  0  0  0  0  0  0  0  0  0  0  0
   -1.1704    7.0672    0.0000 H   0  0  0  0  0  0  0  0  0  0  0  0
   -0.9288    7.6506    0.0000 H   0  0  0  0  0  0  0  0  0  0  0  0
   -1.1704    8.2339    0.0000 H   0  0  0  0  0  0  0  0  0  0  0  0
    7.9046    9.6253    0.0000 H   0  0  0  0  0  0  0  0  0  0  0  0
    7.1641    9.6253    0.0000 H   0  0  0  0  0  0  0  0  0  0  0  0
    8.5001    7.6897    0.0000 H   0  0  0  0  0  0  0  0  0  0  0  0
    9.0734    8.5018    0.0000 H   0  0  0  0  0  0  0  0  0  0  0  0
    8.4497    9.2757    0.0000 H   0  0  0  0  0  0  0  0  0  0  0  0
   -3.2642    9.3046    0.0000 H   0  0  0  0  0  0  0  0  0  0  0  0
   -2.4682   12.1881    0.0000 H   0  0  0  0  0  0  0  0  0  0  0  0
    0.7536    5.2537    0.0000 H   0  0  0  0  0  0  0  0  0  0  0  0
   -3.8972   11.3631    0.0000 H   0  0  0  0  0  0  0  0  0  0  0  0
   -2.8954    9.5938    0.0000 H   0  0  0  0  0  0  0  0  0  0  0  0
   -3.2930    8.8709    0.0000 H   0  0  0  0  0  0  0  0  0  0  0  0
  1 60  1  0  0  0  0
  1  2  1  0  0  0  0
  2 11  1  1  0  0  0
  2 76  1  6  0  0  0
  3 43  1  1  0  0  0
  3 42  1  0  0  0  0
  3 77  1  6  0  0  0
  4 13  1  0  0  0  0
  4 78  1  1  0  0  0
  5 14  1  0  0  0  0
  5 79  1  6  0  0  0
  6 52  1  6  0  0  0
  6 80  1  1  0  0  0
  7 55  1  0  0  0  0
  7 54  1  0  0  0  0
  7 81  1  6  0  0  0
  8 57  1  0  0  0  0
  8 17  1  0  0  0  0
  8 82  1  6  0  0  0
  9  2  1  0  0  0  0
  9 43  1  0  0  0  0
 10  9  2  0  0  0  0
 11 18  1  0  0  0  0
 11 83  1  0  0  0  0
 11 84  1  0  0  0  0
 12  3  1  0  0  0  0
 12 85  1  0  0  0  0
 13 21  1  0  0  0  0
 13 86  1  0  0  0  0
 13 87  1  0  0  0  0
 14 22  1  0  0  0  0
 14 88  1  0  0  0  0
 14 89  1  0  0  0  0
 15  6  1  0  0  0  0
 15 90  1  0  0  0  0
 15 91  1  0  0  0  0
  7 16  1  6  0  0  0
 16 92  1  0  0  0  0
 16 93  1  0  0  0  0
 16 94  1  0  0  0  0
 17 24  1  0  0  0  0
 17 95  1  0  0  0  0
 17 96  1  0  0  0  0
 18 25  1  0  0  0  0
 18 97  1  0  0  0  0
 18 98  1  0  0  0  0
 19 12  1  0  0  0  0
 19 99  1  0  0  0  0
 19100  1  0  0  0  0
 19101  1  0  0  0  0
 20 12  1  0  0  0  0
 20102  1  0  0  0  0
 20103  1  0  0  0  0
 20104  1  0  0  0  0
 21 29  1  0  0  0  0
 21105  1  0  0  0  0
 22 26  1  0  0  0  0
 23 15  1  0  0  0  0
 23106  1  0  0  0  0
 23107  1  0  0  0  0
 24 31  1  0  0  0  0
 24108  1  0  0  0  0
 24109  1  0  0  0  0
 25 35  1  0  0  0  0
 25110  1  0  0  0  0
 25111  1  0  0  0  0
 26 33  2  3  0  0  0
 26112  1  0  0  0  0
 27 21  1  0  0  0  0
 27113  1  0  0  0  0
 27114  1  0  0  0  0
 27115  1  0  0  0  0
 28 34  1  0  0  0  0
 28 22  2  0  0  0  0
 28116  1  0  0  0  0
 29117  1  0  0  0  0
 29118  1  0  0  0  0
 29119  1  0  0  0  0
 30 37  1  0  0  0  0
 30 23  1  0  0  0  0
 31 32  1  0  0  0  0
 31120  1  0  0  0  0
 31121  1  0  0  0  0
 32122  1  0  0  0  0
 32123  1  0  0  0  0
 32124  1  0  0  0  0
 33125  1  0  0  0  0
 34 39  2  0  0  0  0
 34126  1  0  0  0  0
 35 38  1  0  0  0  0
 36 30  2  0  0  0  0
 37127  1  0  0  0  0
 38 41  2  0  0  0  0
 38 40  1  0  0  0  0
 39 33  1  0  0  0  0
 39128  1  0  0  0  0
 40 65  1  0  0  0  0
 41 67  1  0  0  0  0
 42 44  2  0  0  0  0
 43 68  1  0  0  0  0
 45  4  1  0  0  0  0
 45 49  1  0  0  0  0
 45129  1  0  0  0  0
 45130  1  0  0  0  0
 46 42  1  0  0  0  0
  4 46  1  1  0  0  0
 47 48  2  0  0  0  0
 48  5  1  0  0  0  0
  5 49  1  6  0  0  0
 49 70  1  0  0  0  0
 51  6  1  0  0  0  0
 51 50  2  0  0  0  0
 52 71  1  0  0  0  0
 52 48  1  0  0  0  0
 54 58  1  0  0  0  0
 54 53  2  0  0  0  0
 55 51  1  0  0  0  0
 57 56  2  0  0  0  0
  8 58  1  6  0  0  0
 59 74  1  0  0  0  0
 59 57  1  0  0  0  0
 61 46  1  0  0  0  0
 62  1  1  0  0  0  0
 63 35  1  0  0  0  0
 64 40  1  0  0  0  0
 66 41  1  0  0  0  0
 69  1  1  0  0  0  0
 72 55  1  0  0  0  0
 73 58  1  0  0  0  0
 75 59  1  0  0  0  0
M  END
