0q4
  Mrv15b2301242606463D          

130130  0  0  1  0            999 V2000
   -9.3901  -11.5308    1.8971 N   0  0  0  0  0  4  0  0  0  0  0  0
   -8.4010  -12.3851    1.2419 C   0  0  2  0  0  0  0  0  0  0  0  0
   -6.0952   -9.5493    0.9164 C   0  0  1  0  0  0  0  0  0  0  0  0
   -8.6162   -7.5676    2.8126 C   0  0  1  0  0  0  0  0  0  0  0  0
   -8.3281   -9.8290    5.7806 C   0  0  1  0  0  0  0  0  0  0  0  0
   -8.8793   -6.7563    7.7092 C   0  0  1  0  0  0  0  0  0  0  0  0
   -7.2184   -3.4557    6.8568 C   0  0  1  0  0  0  0  0  0  0  0  0
   -3.8396   -2.0980    7.9144 C   0  0  1  0  0  0  0  0  0  0  0  0
   -7.1230  -11.6830    1.1698 C   0  0  0  0  0  0  0  0  0  0  0  0
   -6.1120  -12.1667    1.7233 O   0  0  0  0  0  0  0  0  0  0  0  0
   -8.8769  -12.7247   -0.1720 C   0  0  1  0  0  0  0  0  0  0  0  0
   -5.6494   -8.7316   -0.2975 C   0  0  2  0  0  0  0  0  0  0  0  0
   -9.8303   -6.8744    2.1908 C   0  0  1  0  0  0  0  0  0  0  0  0
   -7.1141  -10.5221    6.4023 C   0  0  2  0  0  0  0  0  0  0  0  0
   -8.6527   -6.5500    9.1367 C   0  0  2  0  0  0  0  0  0  0  0  0
   -7.8910   -2.2325    7.2846 C   0  0  0  0  0  0  0  0  0  0  0  0
   -3.3058   -0.9626    7.1679 C   0  0  1  0  0  0  0  0  0  0  0  0
  -10.2162  -13.4605   -0.0963 C   0  0  2  0  0  0  0  0  0  0  0  0
   -5.0080   -9.6604   -1.3304 C   0  0  0  0  0  0  0  0  0  0  0  0
   -4.6310   -7.6783    0.1432 C   0  0  0  0  0  0  0  0  0  0  0  0
   -9.3844   -6.0567    0.9769 C   0  0  1  0  0  0  0  0  0  0  0  0
   -6.5020  -11.4084    5.4167 C   0  0  0  0  0  0  0  0  0  0  0  0
   -9.2120   -7.7399    9.9190 C   0  0  1  0  0  0  0  0  0  0  0  0
   -3.5433   -1.1787    5.6719 C   0  0  2  0  0  0  0  0  0  0  0  0
  -10.6922  -13.8000   -1.5102 C   0  0  1  0  0  0  0  0  0  0  0  0
   -6.9161  -12.7318    5.3200 C   0  0  0  0  0  0  0  0  0  0  0  0
  -10.5984   -5.3636    0.3552 C   0  0  0  0  0  0  0  0  0  0  0  0
   -5.5051  -10.9289    4.5751 C   0  0  0  0  0  0  0  0  0  0  0  0
   -8.3660   -5.0034    1.4177 C   0  0  0  0  0  0  0  0  0  0  0  0
   -8.9854   -7.5336   11.3465 C   0  0  0  0  0  0  0  0  0  0  0  0
   -2.9839    0.0112    4.8895 C   0  0  1  0  0  0  0  0  0  0  0  0
   -3.2214   -0.2050    3.3936 C   0  0  0  0  0  0  0  0  0  0  0  0
   -6.3333  -13.5756    4.3817 C   0  0  0  0  0  0  0  0  0  0  0  0
   -4.9224  -11.7727    3.6367 C   0  0  0  0  0  0  0  0  0  0  0  0
  -11.9264  -14.4781   -1.4405 N   0  0  2  0  0  0  0  0  0  0  0  0
   -9.3676   -8.3924   12.1705 O   0  0  0  0  0  0  0  0  0  0  0  0
   -8.3631   -6.4154   11.7765 O   0  0  0  0  0  0  0  0  0  0  0  0
  -12.3339  -14.7688   -2.6511 C   0  0  0  0  0  0  0  0  0  0  0  0
   -5.3365  -13.0960    3.5400 C   0  0  0  0  0  0  0  0  0  0  0  0
  -13.4662  -15.4039   -2.8262 N   0  0  1  0  0  0  0  0  0  0  0  0
  -11.6285  -14.4337   -3.6589 N   0  0  0  0  0  4  0  0  0  0  0  0
   -6.7073   -8.6630    1.9020 C   0  0  0  0  0  0  0  0  0  0  0  0
   -7.0338  -10.5200    0.5102 N   0  0  0  0  0  0  0  0  0  0  0  0
   -6.0021   -8.1275    2.7843 O   0  0  0  0  0  0  0  0  0  0  0  0
   -9.0621   -8.3853    4.0265 C   0  0  2  0  0  0  0  0  0  0  0  0
   -8.0251   -8.4235    1.8607 N   0  0  0  0  0  0  0  0  0  0  0  0
  -10.1269   -9.1214    7.1157 O   0  0  0  0  0  0  0  0  0  0  0  0
   -8.9402   -8.9427    6.7662 C   0  0  0  0  0  0  0  0  0  0  0  0
   -7.9020   -9.0476    4.6206 N   0  0  1  0  0  0  0  0  0  0  0  0
   -8.4096   -5.5402    5.6803 O   0  0  0  0  0  0  0  0  0  0  0  0
   -8.3199   -5.5664    6.9268 C   0  0  0  0  0  0  0  0  0  0  0  0
   -8.2297   -7.9376    7.2961 N   0  0  0  0  0  0  0  0  0  0  0  0
   -4.9500   -4.2738    6.8277 O   0  0  0  0  0  0  0  0  0  0  0  0
   -5.7167   -3.3315    7.1221 C   0  0  0  0  0  0  0  0  0  0  0  0
   -7.7339   -4.5523    7.5778 N   0  0  0  0  0  0  0  0  0  0  0  0
   -3.9843   -2.7406   10.2344 O   0  0  0  0  0  0  0  0  0  0  0  0
   -3.6021   -1.8818    9.4104 C   0  0  0  0  0  0  0  0  0  0  0  0
   -5.2235   -2.2125    7.6700 N   0  0  0  0  0  0  0  0  0  0  0  0
   -2.9844   -0.7719    9.8372 N   0  0  0  0  0  0  0  0  0  0  0  0
   -9.0722  -11.3040    2.8415 H   0  0  0  0  0  0  0  0  0  0  0  0
   -8.5724   -8.8390    1.1761 H   0  0  0  0  0  0  0  0  0  0  0  0
  -10.2847  -12.0223    1.9476 H   0  0  0  0  0  0  0  0  0  0  0  0
  -12.5827  -13.9113   -1.0058 H   0  0  0  0  0  0  0  0  0  0  0  0
  -13.8736  -15.5822   -1.9642 H   0  0  0  0  0  0  0  0  0  0  0  0
  -14.0643  -14.8574   -3.3596 H   0  0  0  0  0  0  0  0  0  0  0  0
  -11.9193  -14.6412   -4.5229 H   0  0  0  0  0  0  0  0  0  0  0  0
  -10.8203  -13.9804   -3.5339 H   0  0  0  0  0  0  0  0  0  0  0  0
   -7.6149  -10.3459   -0.2467 H   0  0  0  0  0  0  0  0  0  0  0  0
   -9.5048  -10.6688    1.3601 H   0  0  0  0  0  0  0  0  0  0  0  0
   -7.2218   -8.3440    4.9150 H   0  0  0  0  0  0  0  0  0  0  0  0
   -7.2686   -8.0228    7.3955 H   0  0  0  0  0  0  0  0  0  0  0  0
   -7.6644   -4.5726    8.5451 H   0  0  0  0  0  0  0  0  0  0  0  0
   -5.8185   -1.4813    7.8984 H   0  0  0  0  0  0  0  0  0  0  0  0
   -2.8338   -0.6349   10.7856 H   0  0  0  0  0  0  0  0  0  0  0  0
   -2.6878   -0.1055    9.1977 H   0  0  0  0  0  0  0  0  0  0  0  0
   -8.2787  -13.3044    1.8147 H   0  0  0  0  0  0  0  0  0  0  0  0
   -5.2304  -10.0431    1.3593 H   0  0  0  0  0  0  0  0  0  0  0  0
   -7.8907   -6.8172    3.1266 H   0  0  0  0  0  0  0  0  0  0  0  0
   -9.0536  -10.5794    5.4666 H   0  0  0  0  0  0  0  0  0  0  0  0
   -9.9491   -6.8448    7.5202 H   0  0  0  0  0  0  0  0  0  0  0  0
   -7.3876   -3.6098    5.7911 H   0  0  0  0  0  0  0  0  0  0  0  0
   -3.3374   -3.0112    7.5951 H   0  0  0  0  0  0  0  0  0  0  0  0
   -8.9993  -11.8054   -0.7447 H   0  0  0  0  0  0  0  0  0  0  0  0
   -8.1395  -13.3616   -0.6604 H   0  0  0  0  0  0  0  0  0  0  0  0
   -6.5143   -8.2378   -0.7405 H   0  0  0  0  0  0  0  0  0  0  0  0
  -10.5558   -7.6248    1.8768 H   0  0  0  0  0  0  0  0  0  0  0  0
  -10.2872   -6.2127    2.9267 H   0  0  0  0  0  0  0  0  0  0  0  0
   -7.4317  -11.1047    7.2671 H   0  0  0  0  0  0  0  0  0  0  0  0
   -6.3885   -9.7717    6.7163 H   0  0  0  0  0  0  0  0  0  0  0  0
   -9.1548   -5.6368    9.4560 H   0  0  0  0  0  0  0  0  0  0  0  0
   -7.5828   -6.4615    9.3256 H   0  0  0  0  0  0  0  0  0  0  0  0
   -7.4925   -1.3848    6.7272 H   0  0  0  0  0  0  0  0  0  0  0  0
   -8.9609   -2.3210    7.0956 H   0  0  0  0  0  0  0  0  0  0  0  0
   -7.7219   -2.0785    8.3503 H   0  0  0  0  0  0  0  0  0  0  0  0
   -3.8079   -0.0493    7.4872 H   0  0  0  0  0  0  0  0  0  0  0  0
   -2.2360   -0.8740    7.3568 H   0  0  0  0  0  0  0  0  0  0  0  0
  -10.9537  -12.8235    0.3921 H   0  0  0  0  0  0  0  0  0  0  0  0
  -10.0939  -14.3798    0.4764 H   0  0  0  0  0  0  0  0  0  0  0  0
   -4.6903   -9.0778   -2.1952 H   0  0  0  0  0  0  0  0  0  0  0  0
   -5.7335  -10.4108   -1.6444 H   0  0  0  0  0  0  0  0  0  0  0  0
   -4.1431  -10.1542   -0.8874 H   0  0  0  0  0  0  0  0  0  0  0  0
   -4.3134   -7.0957   -0.7216 H   0  0  0  0  0  0  0  0  0  0  0  0
   -5.0880   -7.0166    0.8791 H   0  0  0  0  0  0  0  0  0  0  0  0
   -3.7661   -8.1721    0.5862 H   0  0  0  0  0  0  0  0  0  0  0  0
   -8.9274   -6.7184    0.2411 H   0  0  0  0  0  0  0  0  0  0  0  0
  -10.2819   -7.8284    9.7301 H   0  0  0  0  0  0  0  0  0  0  0  0
   -8.7099   -8.6531    9.5997 H   0  0  0  0  0  0  0  0  0  0  0  0
   -4.6131   -1.2673    5.4830 H   0  0  0  0  0  0  0  0  0  0  0  0
   -3.0411   -2.0920    5.3526 H   0  0  0  0  0  0  0  0  0  0  0  0
  -10.8145  -12.8807   -2.0830 H   0  0  0  0  0  0  0  0  0  0  0  0
   -9.9547  -14.4370   -1.9986 H   0  0  0  0  0  0  0  0  0  0  0  0
   -7.6476  -13.0837    5.9377 H   0  0  0  0  0  0  0  0  0  0  0  0
  -10.2808   -4.7810   -0.5096 H   0  0  0  0  0  0  0  0  0  0  0  0
  -11.3240   -6.1140    0.0412 H   0  0  0  0  0  0  0  0  0  0  0  0
  -11.0554   -4.7019    1.0910 H   0  0  0  0  0  0  0  0  0  0  0  0
   -5.2012   -9.9578    4.6460 H   0  0  0  0  0  0  0  0  0  0  0  0
   -8.0484   -4.4209    0.5529 H   0  0  0  0  0  0  0  0  0  0  0  0
   -8.8230   -4.3417    2.1535 H   0  0  0  0  0  0  0  0  0  0  0  0
   -7.5011   -5.4972    1.8607 H   0  0  0  0  0  0  0  0  0  0  0  0
   -3.4861    0.9244    5.2089 H   0  0  0  0  0  0  0  0  0  0  0  0
   -1.9141    0.0997    5.0785 H   0  0  0  0  0  0  0  0  0  0  0  0
   -2.8229    0.6427    2.8362 H   0  0  0  0  0  0  0  0  0  0  0  0
   -4.2912   -0.2935    3.2047 H   0  0  0  0  0  0  0  0  0  0  0  0
   -2.7192   -1.1182    3.0743 H   0  0  0  0  0  0  0  0  0  0  0  0
   -6.6372  -14.5467    4.3107 H   0  0  0  0  0  0  0  0  0  0  0  0
   -4.1909  -11.4208    3.0191 H   0  0  0  0  0  0  0  0  0  0  0  0
   -8.2110   -6.2769   12.7347 H   0  0  0  0  0  0  0  0  0  0  0  0
   -4.9089  -13.7152    2.8514 H   0  0  0  0  0  0  0  0  0  0  0  0
   -9.7876   -9.1357    3.7125 H   0  0  0  0  0  0  0  0  0  0  0  0
   -9.5191   -7.7236    4.7623 H   0  0  0  0  0  0  0  0  0  0  0  0
  1 60  1  0  0  0  0
  1  2  1  0  0  0  0
  2 11  1  0  0  0  0
  2 76  1  0  0  0  0
  3 43  1  0  0  0  0
  3 42  1  0  0  0  0
  3 77  1  0  0  0  0
  4 13  1  0  0  0  0
  4 78  1  0  0  0  0
  5 14  1  0  0  0  0
  5 79  1  0  0  0  0
  6 52  1  0  0  0  0
  6 80  1  0  0  0  0
  7 55  1  0  0  0  0
  7 54  1  0  0  0  0
  7 81  1  0  0  0  0
  8 57  1  0  0  0  0
  8 17  1  0  0  0  0
  8 82  1  0  0  0  0
  9  2  1  0  0  0  0
  9 43  1  0  0  0  0
 10  9  2  0  0  0  0
 11 18  1  0  0  0  0
 11 83  1  0  0  0  0
 11 84  1  0  0  0  0
 12  3  1  0  0  0  0
 12 85  1  0  0  0  0
 13 21  1  0  0  0  0
 13 86  1  0  0  0  0
 13 87  1  0  0  0  0
 14 22  1  0  0  0  0
 14 88  1  0  0  0  0
 14 89  1  0  0  0  0
 15  6  1  0  0  0  0
 15 90  1  0  0  0  0
 15 91  1  0  0  0  0
  7 16  1  0  0  0  0
 16 92  1  0  0  0  0
 16 93  1  0  0  0  0
 16 94  1  0  0  0  0
 17 24  1  0  0  0  0
 17 95  1  0  0  0  0
 17 96  1  0  0  0  0
 18 25  1  0  0  0  0
 18 97  1  0  0  0  0
 18 98  1  0  0  0  0
 19 12  1  0  0  0  0
 19 99  1  0  0  0  0
 19100  1  0  0  0  0
 19101  1  0  0  0  0
 20 12  1  0  0  0  0
 20102  1  0  0  0  0
 20103  1  0  0  0  0
 20104  1  0  0  0  0
 21 29  1  0  0  0  0
 21105  1  0  0  0  0
 22 26  1  0  0  0  0
 23 15  1  0  0  0  0
 23106  1  0  0  0  0
 23107  1  0  0  0  0
 24 31  1  0  0  0  0
 24108  1  0  0  0  0
 24109  1  0  0  0  0
 25 35  1  0  0  0  0
 25110  1  0  0  0  0
 25111  1  0  0  0  0
 26 33  2  0  0  0  0
 26112  1  0  0  0  0
 27 21  1  0  0  0  0
 27113  1  0  0  0  0
 27114  1  0  0  0  0
 27115  1  0  0  0  0
 28 34  1  0  0  0  0
 28 22  2  0  0  0  0
 28116  1  0  0  0  0
 29117  1  0  0  0  0
 29118  1  0  0  0  0
 29119  1  0  0  0  0
 30 37  1  0  0  0  0
 30 23  1  0  0  0  0
 31 32  1  0  0  0  0
 31120  1  0  0  0  0
 31121  1  0  0  0  0
 32122  1  0  0  0  0
 32123  1  0  0  0  0
 32124  1  0  0  0  0
 33125  1  0  0  0  0
 34 39  2  0  0  0  0
 34126  1  0  0  0  0
 35 38  1  0  0  0  0
 36 30  2  0  0  0  0
 37127  1  0  0  0  0
 38 41  2  0  0  0  0
 38 40  1  0  0  0  0
 39 33  1  0  0  0  0
 39128  1  0  0  0  0
 40 65  1  0  0  0  0
 41 67  1  0  0  0  0
 42 44  2  0  0  0  0
 43 68  1  0  0  0  0
 45  4  1  0  0  0  0
 45 49  1  0  0  0  0
 45129  1  0  0  0  0
 45130  1  0  0  0  0
 46 42  1  0  0  0  0
  4 46  1  0  0  0  0
 47 48  2  0  0  0  0
 48  5  1  0  0  0  0
  5 49  1  0  0  0  0
 49 70  1  0  0  0  0
 51  6  1  0  0  0  0
 51 50  2  0  0  0  0
 52 71  1  0  0  0  0
 52 48  1  0  0  0  0
 54 58  1  0  0  0  0
 54 53  2  0  0  0  0
 55 51  1  0  0  0  0
 57 56  2  0  0  0  0
  8 58  1  0  0  0  0
 59 74  1  0  0  0  0
 59 57  1  0  0  0  0
 61 46  1  0  0  0  0
 62  1  1  0  0  0  0
 63 35  1  0  0  0  0
 64 40  1  0  0  0  0
 66 41  1  0  0  0  0
 69  1  1  0  0  0  0
 72 55  1  0  0  0  0
 73 58  1  0  0  0  0
 75 59  1  0  0  0  0
M  END
