@<TRIPOS>MOLECULE
lig
 130 130 0 0 0
SMALL
GASTEIGER

@<TRIPOS>ATOM
      1 N          -9.3901  -11.5308    1.8971 N.4     1  UNL11       0.3857
      2 C          -8.4010  -12.3851    1.2419 C.3     1  UNL11      -0.0050
      3 C          -6.0952   -9.5493    0.9164 C.3     1  UNL11       0.1016
      4 C          -8.6162   -7.5676    2.8126 C.3     1  UNL11       0.0359
      5 C          -8.3281   -9.8290    5.7806 C.3     1  UNL11       0.0888
      6 C          -8.8793   -6.7563    7.7092 C.3     1  UNL11       0.0999
      7 C          -7.2184   -3.4557    6.8568 C.3     1  UNL11       0.0966
      8 C          -3.8396   -2.0980    7.9144 C.3     1  UNL11       0.0992
      9 C          -7.1230  -11.6830    1.1698 C.2     1  UNL11       0.1991
     10 O          -6.1120  -12.1667    1.7233 O.2     1  UNL11      -0.2776
     11 C          -8.8769  -12.7247   -0.1720 C.3     1  UNL11      -0.0551
     12 C          -5.6494   -8.7316   -0.2975 C.3     1  UNL11      -0.0197
     13 C          -9.8303   -6.8744    2.1908 C.3     1  UNL11      -0.0310
     14 C          -7.1141  -10.5221    6.4023 C.3     1  UNL11      -0.0037
     15 C          -8.6527   -6.5500    9.1367 C.3     1  UNL11      -0.0159
     16 C          -7.8910   -2.2325    7.2846 C.3     1  UNL11      -0.0381
     17 C          -3.3058   -0.9626    7.1679 C.3     1  UNL11      -0.0260
     18 C         -10.2162  -13.4605   -0.0963 C.3     1  UNL11      -0.0233
     19 C          -5.0080   -9.6604   -1.3304 C.3     1  UNL11      -0.0605
     20 C          -4.6310   -7.6783    0.1432 C.3     1  UNL11      -0.0605
     21 C          -9.3844   -6.0567    0.9769 C.3     1  UNL11      -0.0450
     22 C          -6.5020  -11.4084    5.4167 C.3     1  UNL11      -0.0454
     23 C          -9.2120   -7.7399    9.9190 C.3     1  UNL11       0.0469
     24 C          -3.5433   -1.1787    5.6719 C.3     1  UNL11      -0.0512
     25 C         -10.6922  -13.8000   -1.5102 C.3     1  UNL11       0.0645
     26 C          -6.9161  -12.7318    5.3200 C.3     1  UNL11      -0.0585
     27 C         -10.5984   -5.3636    0.3552 C.3     1  UNL11      -0.0626
     28 C          -5.5051  -10.9289    4.5751 C.3     1  UNL11      -0.0585
     29 C          -8.3660   -5.0034    1.4177 C.3     1  UNL11      -0.0626
     30 C          -8.9854   -7.5336   11.3465 C.2     1  UNL11       0.3048
     31 C          -2.9839    0.0112    4.8895 C.3     1  UNL11      -0.0558
     32 C          -3.2214   -0.2050    3.3936 C.3     1  UNL11      -0.0653
     33 C          -6.3333  -13.5756    4.3817 C.3     1  UNL11      -0.0615
     34 C          -4.9224  -11.7727    3.6367 C.3     1  UNL11      -0.0615
     35 N         -11.9264  -14.4781   -1.4405 N.pl3   1  UNL11      -0.2787
     36 O          -9.3676   -8.3924   12.1705 O.2     1  UNL11      -0.2510
     37 O          -8.3631   -6.4154   11.7765 O.3     1  UNL11      -0.4806
     38 C         -12.3339  -14.7688   -2.6511 C.cat   1  UNL11       0.3410
     39 C          -5.3365  -13.0960    3.5400 C.3     1  UNL11      -0.0617
     40 N         -13.4662  -15.4039   -2.8262 N.pl3   1  UNL11      -0.2919
     41 N         -11.6285  -14.4337   -3.6589 N.pl3   1  UNL11      -0.2919
     42 C          -6.7073   -8.6630    1.9020 C.2     1  UNL11       0.2339
     43 N          -7.0338  -10.5200    0.5102 N.am    1  UNL11      -0.3051
     44 O          -6.0021   -8.1275    2.7843 O.2     1  UNL11      -0.2738
     45 C          -9.0621   -8.3853    4.0265 C.3     1  UNL11       0.0150
     46 N          -8.0251   -8.4235    1.8607 N.am    1  UNL11      -0.3097
     47 O         -10.1269   -9.1214    7.1157 O.2     1  UNL11      -0.2741
     48 C          -8.9402   -8.9427    6.7662 C.2     1  UNL11       0.2310
     49 N          -7.9020   -9.0476    4.6206 N.3     1  UNL11      -0.3036
     50 O          -8.4096   -5.5402    5.6803 O.2     1  UNL11      -0.2738
     51 C          -8.3199   -5.5664    6.9268 C.2     1  UNL11       0.2340
     52 N          -8.2297   -7.9376    7.2961 N.am    1  UNL11      -0.3027
     53 O          -4.9500   -4.2738    6.8277 O.2     1  UNL11      -0.2738
     54 C          -5.7167   -3.3315    7.1221 C.2     1  UNL11       0.2337
     55 N          -7.7339   -4.5523    7.5778 N.am    1  UNL11      -0.3027
     56 O          -3.9843   -2.7406   10.2344 O.2     1  UNL11      -0.2740
     57 C          -3.6021   -1.8818    9.4104 C.2     1  UNL11       0.2308
     58 N          -5.2235   -2.2125    7.6700 N.am    1  UNL11      -0.3025
     59 N          -2.9844   -0.7719    9.8372 N.am    1  UNL11      -0.3278
     60 H          -9.0722  -11.3040    2.8415 H       1  UNL11      -0.0890
     61 H          -8.5724   -8.8390    1.1761 H       1  UNL11       0.1491
     62 H         -10.2847  -12.0223    1.9476 H       1  UNL11      -0.0890
     63 H         -12.5827  -13.9113   -1.0058 H       1  UNL11       0.2578
     64 H         -13.8736  -15.5822   -1.9642 H       1  UNL11       0.2545
     65 H         -14.0643  -14.8574   -3.3596 H       1  UNL11       0.2545
     66 H         -11.9193  -14.6412   -4.5229 H       1  UNL11       0.2545
     67 H         -10.8203  -13.9804   -3.5339 H       1  UNL11       0.2545
     68 H          -7.6149  -10.3459   -0.2467 H       1  UNL11       0.1494
     69 H          -9.5048  -10.6688    1.3601 H       1  UNL11      -0.0890
     70 H          -7.2218   -8.3440    4.9150 H       1  UNL11       0.1227
     71 H          -7.2686   -8.0228    7.3955 H       1  UNL11       0.1495
     72 H          -7.6644   -4.5726    8.5451 H       1  UNL11       0.1495
     73 H          -5.8185   -1.4813    7.8984 H       1  UNL11       0.1495
     74 H          -2.8338   -0.6349   10.7856 H       1  UNL11       0.1450
     75 H          -2.6878   -0.1055    9.1977 H       1  UNL11       0.1450
     76 H          -8.2787  -13.3044    1.8147 H       1  UNL11       0.0178
     77 H          -5.2304  -10.0431    1.3593 H       1  UNL11       0.0597
     78 H          -7.8907   -6.8172    3.1266 H       1  UNL11       0.0511
     79 H          -9.0536  -10.5794    5.4666 H       1  UNL11       0.0560
     80 H          -9.9491   -6.8448    7.5202 H       1  UNL11       0.0595
     81 H          -7.3876   -3.6098    5.7911 H       1  UNL11       0.0592
     82 H          -3.3374   -3.0112    7.5951 H       1  UNL11       0.0594
     83 H          -8.9993  -11.8054   -0.7447 H       1  UNL11       0.0255
     84 H          -8.1395  -13.3616   -0.6604 H       1  UNL11       0.0255
     85 H          -6.5143   -8.2378   -0.7405 H       1  UNL11       0.0318
     86 H         -10.5558   -7.6248    1.8768 H       1  UNL11       0.0286
     87 H         -10.2872   -6.2127    2.9267 H       1  UNL11       0.0286
     88 H          -7.4317  -11.1047    7.2671 H       1  UNL11       0.0333
     89 H          -6.3885   -9.7717    6.7163 H       1  UNL11       0.0333
     90 H          -9.1548   -5.6368    9.4560 H       1  UNL11       0.0293
     91 H          -7.5828   -6.4615    9.3256 H       1  UNL11       0.0293
     92 H          -7.4925   -1.3848    6.7272 H       1  UNL11       0.0252
     93 H          -8.9609   -2.3210    7.0956 H       1  UNL11       0.0252
     94 H          -7.7219   -2.0785    8.3503 H       1  UNL11       0.0252
     95 H          -3.8079   -0.0493    7.4872 H       1  UNL11       0.0288
     96 H          -2.2360   -0.8740    7.3568 H       1  UNL11       0.0288
     97 H         -10.9537  -12.8235    0.3921 H       1  UNL11       0.0295
     98 H         -10.0939  -14.3798    0.4764 H       1  UNL11       0.0295
     99 H          -4.6903   -9.0778   -2.1952 H       1  UNL11       0.0233
    100 H          -5.7335  -10.4108   -1.6444 H       1  UNL11       0.0233
    101 H          -4.1431  -10.1542   -0.8874 H       1  UNL11       0.0233
    102 H          -4.3134   -7.0957   -0.7216 H       1  UNL11       0.0233
    103 H          -5.0880   -7.0166    0.8791 H       1  UNL11       0.0233
    104 H          -3.7661   -8.1721    0.5862 H       1  UNL11       0.0233
    105 H          -8.9274   -6.7184    0.2411 H       1  UNL11       0.0296
    106 H         -10.2819   -7.8284    9.7301 H       1  UNL11       0.0378
    107 H          -8.7099   -8.6531    9.5997 H       1  UNL11       0.0378
    108 H          -4.6131   -1.2673    5.4830 H       1  UNL11       0.0266
    109 H          -3.0411   -2.0920    5.3526 H       1  UNL11       0.0266
    110 H         -10.8145  -12.8807   -2.0830 H       1  UNL11       0.0655
    111 H          -9.9547  -14.4370   -1.9986 H       1  UNL11       0.0655
    112 H          -7.6476  -13.0837    5.9377 H       1  UNL11       0.0620
    113 H         -10.2808   -4.7810   -0.5096 H       1  UNL11       0.0232
    114 H         -11.3240   -6.1140    0.0412 H       1  UNL11       0.0232
    115 H         -11.0554   -4.7019    1.0910 H       1  UNL11       0.0232
    116 H          -5.2012   -9.9578    4.6460 H       1  UNL11       0.0620
    117 H          -8.0484   -4.4209    0.5529 H       1  UNL11       0.0232
    118 H          -8.8230   -4.3417    2.1535 H       1  UNL11       0.0232
    119 H          -7.5011   -5.4972    1.8607 H       1  UNL11       0.0232
    120 H          -3.4861    0.9244    5.2089 H       1  UNL11       0.0263
    121 H          -1.9141    0.0997    5.0785 H       1  UNL11       0.0263
    122 H          -2.8229    0.6427    2.8362 H       1  UNL11       0.0230
    123 H          -4.2912   -0.2935    3.2047 H       1  UNL11       0.0230
    124 H          -2.7192   -1.1182    3.0743 H       1  UNL11       0.0230
    125 H          -6.6372  -14.5467    4.3107 H       1  UNL11       0.0618
    126 H          -4.1909  -11.4208    3.0191 H       1  UNL11       0.0618
    127 H          -8.2110   -6.2769   12.7347 H       1  UNL11       0.2951
    128 H          -4.9089  -13.7152    2.8514 H       1  UNL11       0.0618
    129 H          -9.7876   -9.1357    3.7125 H       1  UNL11       0.0442
    130 H          -9.5191   -7.7236    4.7623 H       1  UNL11       0.0442
@<TRIPOS>UNITY_ATOM_ATTR
1 1
charge 1
@<TRIPOS>BOND
     1     1    60    1
     2     1     2    1
     3     2    11    1
     4     2    76    1
     5     3    43    1
     6     3    42    1
     7     3    77    1
     8     4    13    1
     9     4    78    1
    10     5    14    1
    11     5    79    1
    12     6    52    1
    13     6    80    1
    14     7    55    1
    15     7    54    1
    16     7    81    1
    17     8    57    1
    18     8    17    1
    19     8    82    1
    20     9     2    1
    21     9    43   am
    22    10     9    2
    23    11    18    1
    24    11    83    1
    25    11    84    1
    26    12     3    1
    27    12    85    1
    28    13    21    1
    29    13    86    1
    30    13    87    1
    31    14    22    1
    32    14    88    1
    33    14    89    1
    34    15     6    1
    35    15    90    1
    36    15    91    1
    37     7    16    1
    38    16    92    1
    39    16    93    1
    40    16    94    1
    41    17    24    1
    42    17    95    1
    43    17    96    1
    44    18    25    1
    45    18    97    1
    46    18    98    1
    47    19    12    1
    48    19    99    1
    49    19   100    1
    50    19   101    1
    51    20    12    1
    52    20   102    1
    53    20   103    1
    54    20   104    1
    55    21    29    1
    56    21   105    1
    57    22    26   ar
    58    23    15    1
    59    23   106    1
    60    23   107    1
    61    24    31    1
    62    24   108    1
    63    24   109    1
    64    25    35    1
    65    25   110    1
    66    25   111    1
    67    26    33   ar
    68    26   112    1
    69    27    21    1
    70    27   113    1
    71    27   114    1
    72    27   115    1
    73    28    34   ar
    74    28    22   ar
    75    28   116    1
    76    29   117    1
    77    29   118    1
    78    29   119    1
    79    30    37    1
    80    30    23    1
    81    31    32    1
    82    31   120    1
    83    31   121    1
    84    32   122    1
    85    32   123    1
    86    32   124    1
    87    33   125    1
    88    34    39   ar
    89    34   126    1
    90    35    38    1
    91    36    30    2
    92    37   127    1
    93    38    41    2
    94    38    40    1
    95    39    33   ar
    96    39   128    1
    97    40    65    1
    98    41    67    1
    99    42    44    2
   100    43    68    1
   101    45     4    1
   102    45    49    1
   103    45   129    1
   104    45   130    1
   105    46    42   am
   106     4    46    1
   107    47    48    2
   108    48     5    1
   109     5    49    1
   110    49    70    1
   111    51     6    1
   112    51    50    2
   113    52    71    1
   114    52    48   am
   115    54    58   am
   116    54    53    2
   117    55    51   am
   118    57    56    2
   119     8    58    1
   120    59    74    1
   121    59    57   am
   122    61    46    1
   123    62     1    1
   124    63    35    1
   125    64    40    1
   126    66    41    1
   127    69     1    1
   128    72    55    1
   129    73    58    1
   130    75    59    1
