5KV
  CCTOOLS-0919241036

 33 33  0  0  1  0  0  0  0  0999 V2000
    0.8340    2.9690   -0.1760 O   0  0  0  0  0
   -1.1950    1.6680   -0.3870 C   0  0  0  0  0
    0.2310    1.7210    0.1710 C   0  0  0  0  0
    1.0480    0.5730   -0.4290 C   0  0  0  0  0
   -1.8030    0.2980   -0.0760 C   0  0  0  0  0
   -0.9080   -0.7950   -0.6660 C   0  0  0  0  0
    0.4110   -0.6700   -0.1300 O   0  0  0  0  0
   -1.4390   -2.0790   -0.3320 O   0  0  0  0  0
   -3.1400    0.2090   -0.6690 N   0  0  0  0  0
   -1.9850    2.6910    0.2230 O   0  0  0  0  0
    2.4560    0.5820    0.1690 C   0  0  0  0  0
    3.2530   -0.4140   -0.4750 O   0  0  0  0  0
    4.6820   -0.4940    0.0430 S   0  0  0  0  0
   -4.3370   -0.6300    0.1090 S   0  0  0  0  0
   -3.7780   -1.8850    0.4710 O   0  0  0  0  0
   -4.6270    0.1030    1.4110 O   0  0  0  0  0
   -5.5030   -0.5010   -0.6920 O   0  0  0  0  0
    5.0960    0.8430    0.2870 O   0  0  0  0  0
    4.6300   -1.1820    1.4000 O   0  0  0  0  0
    5.3760   -1.3770   -0.8280 O   0  0  0  0  0
    1.7400    3.0700    0.1460 H   0  0  0  0  0
   -1.1700    1.8200   -1.4660 H   0  0  0  0  0
    0.2020    1.6200    1.2560 H   0  0  0  0  0
    1.1100    0.6980   -1.5100 H   0  0  0  0  0
   -1.8730    0.1670    1.0040 H   0  0  0  0  0
   -0.8710   -0.6880   -1.7500 H   0  0  0  0  0
   -0.9210   -2.8200   -0.6750 H   0  0  0  0  0
   -3.3230    0.6420   -1.5180 H   0  0  0  0  0
   -1.6530    3.5870    0.0730 H   0  0  0  0  0
    2.9080    1.5620    0.0180 H   0  0  0  0  0
    2.3990    0.3680    1.2360 H   0  0  0  0  0
   -5.3190   -0.3080    1.9480 H   0  0  0  0  0
    5.4950   -1.2850    1.8220 H   0  0  0  0  0
  1  3  1  0  0  0
  1 21  1  0  0  0
  2  3  1  0  0  0
  2  5  1  0  0  0
  2 22  1  0  0  0
  3  4  1  0  0  0
  3 23  1  0  0  0
  4 11  1  0  0  0
  4  7  1  0  0  0
  4 24  1  0  0  0
  5  6  1  0  0  0
  5 25  1  0  0  0
  6  7  1  0  0  0
  6  8  1  0  0  0
  6 26  1  0  0  0
  8 27  1  0  0  0
  9 14  1  0  0  0
  9  5  1  0  0  0
  9 28  1  0  0  0
 10  2  1  0  0  0
 10 29  1  0  0  0
 11 12  1  0  0  0
 11 30  1  0  0  0
 11 31  1  0  0  0
 12 13  1  0  0  0
 13 20  2  0  0  0
 13 19  1  0  0  0
 14 16  1  0  0  0
 15 14  2  0  0  0
 16 32  1  0  0  0
 17 14  2  0  0  0
 18 13  2  0  0  0
 19 33  1  0  0  0
M  END
$$$$
