lig
 OpenBabel01242605483D

129129  0  0  1  0  0  0  0  0999 V2000
    7.5650   16.2690   34.1090 C   0  0  2  0  0  0  0  0  0  0  0  0
    8.8570   16.8290   33.7940 N   0  0  0  0  0  0  0  0  0  0  0  0
    6.2520   18.2690   33.6990 O   0  0  0  0  0  0  0  0  0  0  0  0
    6.3830   17.0500   33.4760 C   0  0  0  0  0  0  0  0  0  0  0  0
    7.0580   13.4530   37.1280 N   0  0  0  0  0  0  0  0  0  0  0  0
    3.3460   15.1950   33.9290 O   0  0  0  0  0  0  0  0  0  0  0  0
    7.3060   16.2540   35.6280 C   0  0  0  0  0  0  0  0  0  0  0  0
    5.3410   13.7440   38.7840 N   0  0  0  0  0  4  0  0  0  0  0  0
   -2.8780   15.4830   33.6400 O   0  0  0  0  0  0  0  0  0  0  0  0
    6.0600   15.4830   36.0070 C   0  0  0  0  0  0  0  0  0  0  0  0
    7.4920   12.9550   39.4210 N   0  0  0  0  0  0  0  0  0  0  0  0
   -7.0990   18.0180   32.8980 O   0  0  0  0  0  0  0  0  0  0  0  0
    6.2550   13.9710   36.0400 C   0  0  0  0  0  0  0  0  0  0  0  0
    5.5120   16.3490   32.6670 N   0  0  0  0  0  0  0  0  0  0  0  0
   -6.1310   17.6640   38.1570 O   0  0  0  0  0  0  0  0  0  0  0  0
    6.6250   13.4000   38.4410 C   0  0  0  0  0  0  0  0  0  0  0  0
    2.1250   17.1260   33.7340 N   0  0  0  0  0  0  0  0  0  0  0  0
   -7.5150   15.9500   38.3500 O   0  0  0  0  0  0  0  0  0  0  0  0
    4.1960   16.8510   32.3440 C   0  0  2  0  0  0  0  0  0  0  0  0
   -0.6420   16.9890   32.8100 N   0  0  0  0  0  0  0  0  0  0  0  0
   -9.4930   13.9850   33.2840 O   0  0  0  0  0  0  0  0  0  0  0  0
    3.1700   16.3130   33.3880 C   0  0  0  0  0  0  0  0  0  0  0  0
   -4.3200   17.2300   33.2870 N   0  0  0  0  0  0  0  0  0  0  0  0
  -13.1820   12.6640   31.9330 O   0  0  0  0  0  0  0  0  0  0  0  0
    3.7310   16.4380   30.9290 C   0  0  0  0  0  0  0  0  0  0  0  0
   -7.4200   15.7540   32.7050 N   0  0  0  0  0  0  0  0  0  0  0  0
    2.4070   17.0960   30.5960 C   0  0  0  0  0  0  0  0  0  0  0  0
  -11.0620   15.4020   32.3830 N   0  0  0  0  0  0  0  0  0  0  0  0
    4.7690   16.8170   29.8930 C   0  0  0  0  0  0  0  0  0  0  0  0
  -13.2490   14.4960   30.5890 N   0  0  0  0  0  0  0  0  0  0  0  0
    1.0620   16.6990   34.6220 C   0  0  2  0  0  0  0  0  0  0  0  0
   -0.3200   17.2710   34.1940 C   0  0  0  0  0  0  0  0  0  0  0  0
    1.2830   17.1120   36.0880 C   0  0  0  0  0  0  0  0  0  0  0  0
    2.3800   16.3130   36.7770 C   0  0  0  0  0  0  0  0  0  0  0  0
    2.6760   16.9110   38.1370 C   0  0  0  0  0  0  0  0  0  0  0  0
    2.0020   14.8510   36.9100 C   0  0  0  0  0  0  0  0  0  0  0  0
   -1.9820   17.4000   32.4230 C   0  0  2  0  0  0  0  0  0  0  0  0
   -3.0970   16.6160   33.1620 C   0  0  0  0  0  0  0  0  0  0  0  0
   -2.1910   17.2270   30.9070 C   0  0  0  0  0  0  0  0  0  0  0  0
   -3.3810   17.9640   30.4020 C   0  0  0  0  0  0  0  0  0  0  0  0
   -4.3970   17.2760   29.7280 C   0  0  0  0  0  0  0  0  0  0  0  0
   -3.4700   19.3550   30.5400 C   0  0  0  0  0  0  0  0  0  0  0  0
   -5.4890   17.9690   29.2070 C   0  0  0  0  0  0  0  0  0  0  0  0
   -4.5640   20.0450   30.0200 C   0  0  0  0  0  0  0  0  0  0  0  0
   -5.5750   19.3530   29.3530 C   0  0  0  0  0  0  0  0  0  0  0  0
   -5.4320   16.6060   33.9630 C   0  0  2  0  0  0  0  0  0  0  0  0
   -6.7270   16.8550   33.1480 C   0  0  0  0  0  0  0  0  0  0  0  0
   -5.6660   17.1630   35.3800 C   0  0  0  0  0  0  0  0  0  0  0  0
   -6.5260   16.2180   36.1890 C   0  0  0  0  0  0  0  0  0  0  0  0
   -6.6680   16.7050   37.5950 C   0  0  0  0  0  0  0  0  0  0  0  0
   -8.6520   15.8640   31.9640 C   0  0  2  0  0  0  0  0  0  0  0  0
   -9.7650   15.0000   32.6160 C   0  0  0  0  0  0  0  0  0  0  0  0
   -8.5250   15.4050   30.5100 C   0  0  0  0  0  0  0  0  0  0  0  0
  -12.2080   14.6750   32.8760 C   0  0  2  0  0  0  0  0  0  0  0  0
  -12.9160   13.8680   31.7620 C   0  0  0  0  0  0  0  0  0  0  0  0
  -13.2340   15.5880   33.5700 C   0  0  0  0  0  0  0  0  0  0  0  0
  -14.3270   14.7950   34.2580 C   0  0  0  0  0  0  0  0  0  0  0  0
  -15.6060   14.7420   33.4460 C   0  0  0  0  0  0  0  0  0  0  0  0
  -16.6900   13.9910   34.1790 C   0  0  0  0  0  0  0  0  0  0  0  0
    3.5240   16.3650   38.6200 H   0  0  0  0  0  0  0  0  0  0  0  0
    1.5320   18.2040   36.1430 H   0  0  0  0  0  0  0  0  0  0  0  0
    4.2390   17.9810   32.3970 H   0  0  0  0  0  0  0  0  0  0  0  0
    5.6890   16.1900   29.9950 H   0  0  0  0  0  0  0  0  0  0  0  0
   -0.3150   18.3900   34.3280 H   0  0  0  0  0  0  0  0  0  0  0  0
   -8.9590   16.9550   31.9740 H   0  0  0  0  0  0  0  0  0  0  0  0
    0.3200   16.9590   36.6430 H   0  0  0  0  0  0  0  0  0  0  0  0
   -2.2800   16.1310   30.6730 H   0  0  0  0  0  0  0  0  0  0  0  0
   -6.2840   17.4210   28.6800 H   0  0  0  0  0  0  0  0  0  0  0  0
   -4.6270   21.1370   30.1340 H   0  0  0  0  0  0  0  0  0  0  0  0
   -7.5680   16.3150   39.2480 H   0  0  0  0  0  0  0  0  0  0  0  0
   -9.4880   15.6000   29.9800 H   0  0  0  0  0  0  0  0  0  0  0  0
  -15.9570   15.7840   33.2230 H   0  0  0  0  0  0  0  0  0  0  0  0
    2.6930   14.3360   37.6240 H   0  0  0  0  0  0  0  0  0  0  0  0
    2.0780   14.3380   35.9190 H   0  0  0  0  0  0  0  0  0  0  0  0
    5.2430   13.4660   36.0530 H   0  0  0  0  0  0  0  0  0  0  0  0
  -13.0760   15.4550   30.4490 H   0  0  0  0  0  0  0  0  0  0  0  0
  -16.3800   12.9330   34.3600 H   0  0  0  0  0  0  0  0  0  0  0  0
   -6.4390   19.8990   28.9460 H   0  0  0  0  0  0  0  0  0  0  0  0
    2.4250   18.1830   30.8530 H   0  0  0  0  0  0  0  0  0  0  0  0
    2.2000   17.0010   29.5020 H   0  0  0  0  0  0  0  0  0  0  0  0
  -16.9040   14.4690   35.1660 H   0  0  0  0  0  0  0  0  0  0  0  0
    7.5710   15.2030   33.7330 H   0  0  0  0  0  0  0  0  0  0  0  0
    5.0560   17.8910   29.9980 H   0  0  0  0  0  0  0  0  0  0  0  0
   -6.1560   18.1710   35.3150 H   0  0  0  0  0  0  0  0  0  0  0  0
    6.7800   13.6430   35.0930 H   0  0  0  0  0  0  0  0  0  0  0  0
    1.0090   15.5680   34.5790 H   0  0  0  0  0  0  0  0  0  0  0  0
    8.2020   15.8250   36.1480 H   0  0  0  0  0  0  0  0  0  0  0  0
  -13.6770   16.3000   32.8260 H   0  0  0  0  0  0  0  0  0  0  0  0
    5.6960   15.8570   37.0010 H   0  0  0  0  0  0  0  0  0  0  0  0
  -14.5490   15.2670   35.2510 H   0  0  0  0  0  0  0  0  0  0  0  0
  -15.4000   14.2370   32.4640 H   0  0  0  0  0  0  0  0  0  0  0  0
   -1.2820   17.6120   30.3670 H   0  0  0  0  0  0  0  0  0  0  0  0
    2.9570   17.9870   38.0420 H   0  0  0  0  0  0  0  0  0  0  0  0
    7.1920   17.3170   35.9750 H   0  0  0  0  0  0  0  0  0  0  0  0
   -4.3340   16.1850   29.6030 H   0  0  0  0  0  0  0  0  0  0  0  0
  -13.9780   13.7470   34.4600 H   0  0  0  0  0  0  0  0  0  0  0  0
   -2.0770   18.4980   32.6790 H   0  0  0  0  0  0  0  0  0  0  0  0
    5.2300   15.6820   35.2690 H   0  0  0  0  0  0  0  0  0  0  0  0
   -1.0850   16.8390   34.9040 H   0  0  0  0  0  0  0  0  0  0  0  0
   -4.6830   17.3030   35.9030 H   0  0  0  0  0  0  0  0  0  0  0  0
   -2.6650   19.9090   31.0470 H   0  0  0  0  0  0  0  0  0  0  0  0
    0.9620   14.7390   37.2990 H   0  0  0  0  0  0  0  0  0  0  0  0
   -6.0700   15.1900   36.2230 H   0  0  0  0  0  0  0  0  0  0  0  0
    3.5920   15.3190   30.9120 H   0  0  0  0  0  0  0  0  0  0  0  0
   -5.2070   15.4990   34.0490 H   0  0  0  0  0  0  0  0  0  0  0  0
    1.7810   16.8350   38.8030 H   0  0  0  0  0  0  0  0  0  0  0  0
    4.3580   16.6600   28.8650 H   0  0  0  0  0  0  0  0  0  0  0  0
  -11.8360   13.9040   33.6230 H   0  0  0  0  0  0  0  0  0  0  0  0
   -7.5500   16.1180   35.7360 H   0  0  0  0  0  0  0  0  0  0  0  0
    1.5650   16.6080   31.1440 H   0  0  0  0  0  0  0  0  0  0  0  0
   -7.7120   15.9730   29.9930 H   0  0  0  0  0  0  0  0  0  0  0  0
  -13.7160   13.9890   29.8790 H   0  0  0  0  0  0  0  0  0  0  0  0
  -12.6950   16.2040   34.3400 H   0  0  0  0  0  0  0  0  0  0  0  0
  -17.6310   13.9840   33.5780 H   0  0  0  0  0  0  0  0  0  0  0  0
    3.3150   16.3780   36.1480 H   0  0  0  0  0  0  0  0  0  0  0  0
   -8.2950   14.3140   30.4510 H   0  0  0  0  0  0  0  0  0  0  0  0
    8.9290   17.7730   34.1220 H   0  0  0  0  0  0  0  0  0  0  0  0
    9.0230   16.8050   32.8070 H   0  0  0  0  0  0  0  0  0  0  0  0
    8.0410   13.3810   36.9560 H   0  0  0  0  0  0  0  0  0  0  0  0
    4.7140   14.1220   38.1040 H   0  0  0  0  0  0  0  0  0  0  0  0
    5.0010   13.6000   39.7080 H   0  0  0  0  0  0  0  0  0  0  0  0
    8.4140   12.6610   39.1890 H   0  0  0  0  0  0  0  0  0  0  0  0
    7.1840   12.8340   40.3590 H   0  0  0  0  0  0  0  0  0  0  0  0
    5.6180   15.3630   32.5940 H   0  0  0  0  0  0  0  0  0  0  0  0
    1.9750   17.9640   33.2210 H   0  0  0  0  0  0  0  0  0  0  0  0
   -0.5200   16.0090   32.6180 H   0  0  0  0  0  0  0  0  0  0  0  0
   -4.4860   18.1130   32.8570 H   0  0  0  0  0  0  0  0  0  0  0  0
   -7.1360   14.8370   32.9660 H   0  0  0  0  0  0  0  0  0  0  0  0
  -11.2290   16.2380   31.8770 H   0  0  0  0  0  0  0  0  0  0  0  0
  1 82  1  6  0  0  0
  1  7  1  0  0  0  0
  2  1  1  0  0  0  0
  2117  1  0  0  0  0
  4  3  2  0  0  0  0
  4  1  1  0  0  0  0
  5 16  1  0  0  0  0
  7 94  1  0  0  0  0
  7 10  1  0  0  0  0
  7 87  1  0  0  0  0
  8121  1  0  0  0  0
 10 13  1  0  0  0  0
 10 89  1  0  0  0  0
 11123  1  0  0  0  0
 12 47  2  0  0  0  0
 13 75  1  0  0  0  0
 13  5  1  0  0  0  0
 14  4  1  0  0  0  0
 16  8  2  0  0  0  0
 16 11  1  0  0  0  0
 17 31  1  0  0  0  0
 18 70  1  0  0  0  0
 19 62  1  1  0  0  0
 19 14  1  0  0  0  0
 19 22  1  0  0  0  0
 20 32  1  0  0  0  0
 22 17  1  0  0  0  0
 22  6  2  0  0  0  0
 23 46  1  0  0  0  0
 25 19  1  0  0  0  0
 26128  1  0  0  0  0
 26 47  1  0  0  0  0
 27 79  1  0  0  0  0
 27 25  1  0  0  0  0
 27110  1  0  0  0  0
 28 52  1  0  0  0  0
 28 54  1  0  0  0  0
 29 63  1  0  0  0  0
 29 83  1  0  0  0  0
 29 25  1  0  0  0  0
 30 55  1  0  0  0  0
 31 86  1  6  0  0  0
 31 33  1  0  0  0  0
 32 64  1  0  0  0  0
 32 31  1  0  0  0  0
 32 99  1  0  0  0  0
 33 61  1  0  0  0  0
 33 66  1  0  0  0  0
 33 34  1  0  0  0  0
 34 36  1  0  0  0  0
 34 35  1  0  0  0  0
 35 60  1  0  0  0  0
 35106  1  0  0  0  0
 36102  1  0  0  0  0
 36 73  1  0  0  0  0
 37 97  1  1  0  0  0
 37 20  1  0  0  0  0
 37 38  1  0  0  0  0
 38 23  1  0  0  0  0
 38  9  2  0  0  0  0
 39 37  1  0  0  0  0
 40 42  1  0  0  0  0
 40 39  1  0  0  0  0
 41 40  2  0  0  0  0
 42101  1  0  0  0  0
 43 45  2  0  0  0  0
 43 41  1  0  0  0  0
 44 69  1  0  0  0  0
 44 42  2  0  0  0  0
 45 44  1  0  0  0  0
 46105  1  1  0  0  0
 46 48  1  0  0  0  0
 47 46  1  0  0  0  0
 48100  1  0  0  0  0
 48 49  1  0  0  0  0
 49103  1  0  0  0  0
 49 50  1  0  0  0  0
 50 15  2  0  0  0  0
 50 18  1  0  0  0  0
 51 65  1  1  0  0  0
 51 52  1  0  0  0  0
 51 26  1  0  0  0  0
 52 21  2  0  0  0  0
 53 51  1  0  0  0  0
 54 56  1  0  0  0  0
 54108  1  1  0  0  0
 55 24  2  0  0  0  0
 55 54  1  0  0  0  0
 56 57  1  0  0  0  0
 56113  1  0  0  0  0
 57 96  1  0  0  0  0
 57 90  1  0  0  0  0
 58 59  1  0  0  0  0
 58 57  1  0  0  0  0
 59 77  1  0  0  0  0
 59 81  1  0  0  0  0
 67 39  1  0  0  0  0
 68 43  1  0  0  0  0
 71 53  1  0  0  0  0
 72 58  1  0  0  0  0
 74 36  1  0  0  0  0
 76 30  1  0  0  0  0
 78 45  1  0  0  0  0
 80 27  1  0  0  0  0
 84 48  1  0  0  0  0
 85 13  1  0  0  0  0
 88 56  1  0  0  0  0
 91 58  1  0  0  0  0
 92 39  1  0  0  0  0
 93 35  1  0  0  0  0
 95 41  1  0  0  0  0
 98 10  1  0  0  0  0
104 25  1  0  0  0  0
107 29  1  0  0  0  0
109 49  1  0  0  0  0
111 53  1  0  0  0  0
112 30  1  0  0  0  0
114 59  1  0  0  0  0
115 34  1  0  0  0  0
116 53  1  0  0  0  0
118  2  1  0  0  0  0
119  5  1  0  0  0  0
120  8  1  0  0  0  0
122 11  1  0  0  0  0
124 14  1  0  0  0  0
125 17  1  0  0  0  0
126 20  1  0  0  0  0
127 23  1  0  0  0  0
129 28  1  0  0  0  0
M  END
