@<TRIPOS>MOLECULE
lig
 129 129 0 0 0
SMALL
GASTEIGER

@<TRIPOS>ATOM
      1 C           4.8957    3.2419   14.2093 C.3     1  UNL11       0.0824
      2 N           5.7933    2.9264   13.0857 N.3     1  UNL11      -0.3199
      3 O           4.9789    1.0348   14.9218 O.2     1  UNL11      -0.2741
      4 C           4.2240    1.9786   14.6049 C.2     1  UNL11       0.2304
      5 N           3.6939    7.9087   12.7012 N.pl3   1  UNL11      -0.2787
      6 O           1.5154    1.1033   12.1712 O.2     1  UNL11      -0.2738
      7 C           3.9236    4.3624   13.7618 C.3     1  UNL11      -0.0264
      8 N           2.8190    9.8599   12.0386 N.pl3   1  UNL11      -0.2919
      9 O           8.6563   -3.4885   13.1832 O.2     1  UNL11      -0.2741
     10 C           4.4745    5.7524   13.4137 C.3     1  UNL11      -0.0204
     11 N           1.4549    8.1225   12.4025 N.pl3   1  UNL11      -0.2919
     12 O           8.1005   -3.1279   18.8665 O.2     1  UNL11      -0.2738
     13 C           3.2640    6.6082   13.0359 C.3     1  UNL11       0.0646
     14 N           2.8668    1.7865   14.5689 N.am    1  UNL11      -0.3025
     15 O           3.5079   -5.9967   15.5139 O.2     1  UNL11      -0.2510
     16 C           2.6574    8.6415   12.3776 C.cat   1  UNL11       0.3410
     17 N           2.7970   -0.6643   12.1722 N.am    1  UNL11      -0.3097
     18 O           4.6498   -6.5555   17.3730 O.3     1  UNL11      -0.4806
     19 C           2.2171    0.5211   14.3742 C.3     1  UNL11       0.1017
     20 N           5.9176   -2.0322   13.6335 N.3     1  UNL11      -0.3036
     21 O          12.0182   -2.5805   19.7463 O.2     1  UNL11      -0.2738
     22 C           2.1491    0.2983   12.8927 C.2     1  UNL11       0.2339
     23 N           8.0863   -3.5738   15.2985 N.am    1  UNL11      -0.3027
     24 O          14.4382    0.2449   18.2081 O.2     1  UNL11      -0.2740
     25 C           0.8318    0.4586   15.0449 C.3     1  UNL11      -0.0197
     26 N           9.7985   -3.4843   17.3879 N.am    1  UNL11      -0.3027
     27 C           0.9795    0.7176   16.5456 C.3     1  UNL11      -0.0605
     28 N          12.6828   -2.4886   17.5624 N.am    1  UNL11      -0.3025
     29 C           0.2203   -0.9264   14.8242 C.3     1  UNL11      -0.0605
     30 N          14.1555   -0.2706   16.0230 N.am    1  UNL11      -0.3278
     31 C           3.6392   -1.7115   12.6642 C.3     1  UNL11       0.0359
     32 C           5.1156   -1.2629   12.6523 C.3     1  UNL11       0.0150
     33 C           3.4692   -2.9958   11.8184 C.3     1  UNL11      -0.0310
     34 C           2.1074   -3.7091   11.9352 C.3     1  UNL11      -0.0450
     35 C           2.1042   -4.9515   11.0423 C.3     1  UNL11      -0.0626
     36 C           1.8726   -4.1251   13.3888 C.3     1  UNL11      -0.0626
     37 C           7.3391   -1.6456   13.7839 C.3     1  UNL11       0.0888
     38 C           8.0591   -2.8990   14.1158 C.2     1  UNL11       0.2310
     39 C           7.4646   -0.5079   14.8172 C.3     1  UNL11      -0.0037
     40 C           8.8086    0.0740   15.0087 C.3     1  UNL11      -0.0454
     41 C           9.2655    1.1158   14.1896 C.3     1  UNL11      -0.0585
     42 C           9.6072   -0.3865   16.0581 C.3     1  UNL11      -0.0585
     43 C          10.5554    1.6398   14.3850 C.3     1  UNL11      -0.0615
     44 C          10.8904    0.0991   16.2608 C.3     1  UNL11      -0.0615
     45 C          11.4269    1.1767   15.4556 C.3     1  UNL11      -0.0617
     46 C           7.4808   -3.2856   16.5788 C.3     1  UNL11       0.0999
     47 C           8.4796   -3.2886   17.6794 C.2     1  UNL11       0.2340
     48 C           6.5240   -4.4571   16.8724 C.3     1  UNL11      -0.0159
     49 C           5.3128   -4.6113   15.9402 C.3     1  UNL11       0.0469
     50 C           4.4620   -5.7585   16.2824 C.2     1  UNL11       0.3048
     51 C          10.7980   -3.9423   18.2901 C.3     1  UNL11       0.0966
     52 C          11.8593   -2.9392   18.5553 C.2     1  UNL11       0.2337
     53 C          11.3529   -5.2417   17.6728 C.3     1  UNL11      -0.0381
     54 C          14.0361   -2.0513   17.7580 C.3     1  UNL11       0.0992
     55 C          14.2268   -0.6349   17.3359 C.2     1  UNL11       0.2308
     56 C          14.9573   -2.9980   16.9533 C.3     1  UNL11      -0.0260
     57 C          14.9029   -4.5015   17.3100 C.3     1  UNL11      -0.0512
     58 C          15.7645   -5.3202   16.3429 C.3     1  UNL11      -0.0558
     59 C          15.6899   -6.8007   16.7217 C.3     1  UNL11      -0.0653
     60 H           1.1414   -5.4559   11.1249 H       1  UNL11       0.0232
     61 H           3.6729   -2.7709   10.7715 H       1  UNL11       0.0286
     62 H           2.7678   -0.2635   14.8807 H       1  UNL11       0.0597
     63 H          -0.7599   -0.9707   15.2988 H       1  UNL11       0.0233
     64 H           5.1745   -0.2004   12.8882 H       1  UNL11       0.0442
     65 H          10.3608   -4.2508   19.2437 H       1  UNL11       0.0592
     66 H           4.2052   -3.7147   12.1783 H       1  UNL11       0.0286
     67 H           6.7571    0.2845   14.5728 H       1  UNL11       0.0333
     68 H          10.8868    2.3999   13.7799 H       1  UNL11       0.0618
     69 H          11.4461   -0.2857   17.0194 H       1  UNL11       0.0618
     70 H           4.0448   -7.2973   17.5852 H       1  UNL11       0.2951
     71 H          11.8110   -5.0193   16.7090 H       1  UNL11       0.0252
     72 H          15.3962   -5.1864   15.3258 H       1  UNL11       0.0263
     73 H           0.9099   -4.6294   13.4714 H       1  UNL11       0.0232
     74 H           1.8749   -3.2400   14.0249 H       1  UNL11       0.0232
     75 H           2.5770    6.6588   13.8805 H       1  UNL11       0.0655
     76 H          14.2461    0.6727   15.7713 H       1  UNL11       0.1450
     77 H          16.3028   -7.3831   16.0338 H       1  UNL11       0.0230
     78 H          12.4336    1.6250   15.6139 H       1  UNL11       0.0618
     79 H          -0.0007    0.6733   17.0202 H       1  UNL11       0.0233
     80 H           1.6295   -0.0404   16.9828 H       1  UNL11       0.0233
     81 H          14.6555   -7.1392   16.6624 H       1  UNL11       0.0230
     82 H           5.5041    3.5925   15.0470 H       1  UNL11       0.0554
     83 H           0.1150   -1.1110   13.7551 H       1  UNL11       0.0233
     84 H           6.1820   -4.3966   17.9056 H       1  UNL11       0.0293
     85 H           2.7563    6.1620   12.1807 H       1  UNL11       0.0655
     86 H           3.4125   -1.9620   13.6952 H       1  UNL11       0.0511
     87 H           3.1223    4.4621   14.4939 H       1  UNL11       0.0286
     88 H          14.7677   -2.8703   15.8876 H       1  UNL11       0.0288
     89 H           4.9624    6.1797   14.2898 H       1  UNL11       0.0296
     90 H          13.8711   -4.8494   17.2610 H       1  UNL11       0.0266
     91 H          16.7989   -4.9817   16.4023 H       1  UNL11       0.0263
     92 H           7.1593   -0.9772   15.7524 H       1  UNL11       0.0333
     93 H           2.2715   -4.6552   10.0068 H       1  UNL11       0.0232
     94 H           3.4143    3.9866   12.8744 H       1  UNL11       0.0286
     95 H           8.6712    1.5075   13.4755 H       1  UNL11       0.0620
     96 H          15.2167   -4.6198   18.3472 H       1  UNL11       0.0266
     97 H           7.7529   -1.2554   12.8495 H       1  UNL11       0.0560
     98 H           5.1984    5.6776   12.6022 H       1  UNL11       0.0296
     99 H           5.5382   -1.3573   11.6519 H       1  UNL11       0.0442
    100 H           7.0900   -5.3867   16.8119 H       1  UNL11       0.0293
    101 H           9.2699   -1.0590   16.6844 H       1  UNL11       0.0620
    102 H           2.6659   -4.8022   13.7055 H       1  UNL11       0.0232
    103 H           4.7180   -3.6982   15.9631 H       1  UNL11       0.0378
    104 H           0.1819    1.2166   14.6077 H       1  UNL11       0.0318
    105 H           6.9333   -2.3422   16.6361 H       1  UNL11       0.0595
    106 H           2.8974   -5.6287   11.3591 H       1  UNL11       0.0232
    107 H           0.8702   -1.6844   15.2615 H       1  UNL11       0.0233
    108 H          14.3321   -2.1261   18.8009 H       1  UNL11       0.0594
    109 H           5.6196   -4.6945   14.8975 H       1  UNL11       0.0378
    110 H           1.4152    1.7043   16.7028 H       1  UNL11       0.0233
    111 H          10.5395   -5.9536   17.5328 H       1  UNL11       0.0252
    112 H          14.0155   -0.9442   15.3393 H       1  UNL11       0.1450
    113 H          15.9886   -2.6756   17.0969 H       1  UNL11       0.0288
    114 H          16.0582   -6.9345   17.7388 H       1  UNL11       0.0230
    115 H           1.3142   -3.0320   11.6185 H       1  UNL11       0.0296
    116 H          12.1004   -5.6706   18.3401 H       1  UNL11       0.0252
    117 H           5.2416    2.5962   12.2913 H       1  UNL11       0.1189
    118 H           6.4515    2.1980   13.3696 H       1  UNL11       0.1189
    119 H           4.3054    7.8637   11.9495 H       1  UNL11       0.2578
    120 H           3.6773   10.2304   12.0209 H       1  UNL11       0.2545
    121 H           2.0792   10.3830   11.8077 H       1  UNL11       0.2545
    122 H           0.8072    8.7943   12.1378 H       1  UNL11       0.2545
    123 H           1.2537    7.8154   13.3003 H       1  UNL11       0.2545
    124 H           2.3109    2.5803   14.5511 H       1  UNL11       0.1495
    125 H           2.6760   -0.6260   11.2088 H       1  UNL11       0.1491
    126 H           5.4584   -2.0035   14.5460 H       1  UNL11       0.1227
    127 H           8.5771   -4.4118   15.2666 H       1  UNL11       0.1495
    128 H          10.0659   -3.3785   16.4604 H       1  UNL11       0.1495
    129 H          12.3734   -2.6071   16.6478 H       1  UNL11       0.1495
@<TRIPOS>BOND
     1     1    82    1
     2     1     7    1
     3     1     2    1
     4     2   117    1
     5     4     3    2
     6     4     1    1
     7     5    16    1
     8     7    94    1
     9     7    10    1
    10     7    87    1
    11     8   121    1
    12    10    13    1
    13    10    89    1
    14    11   123    1
    15    12    47    2
    16    13    75    1
    17    13     5    1
    18    14     4   am
    19    16     8    2
    20    16    11    1
    21    31    17    1
    22    18    70    1
    23    19    62    1
    24    19    14    1
    25    19    22    1
    26    20    32    1
    27    22    17   am
    28    22     6    2
    29    46    23    1
    30    25    19    1
    31    26   128    1
    32    26    47   am
    33    27    79    1
    34    27    25    1
    35    27   110    1
    36    28    52   am
    37    54    28    1
    38    29    63    1
    39    29    83    1
    40    29    25    1
    41    30    55   am
    42    31    86    1
    43    31    33    1
    44    32    64    1
    45    32    31    1
    46    32    99    1
    47    33    61    1
    48    33    66    1
    49    33    34    1
    50    34    36    1
    51    34    35    1
    52    35    60    1
    53    35   106    1
    54    36   102    1
    55    36    73    1
    56    37    97    1
    57    37    20    1
    58    37    38    1
    59    38    23   am
    60    38     9    2
    61    39    37    1
    62    40    42   ar
    63    40    39    1
    64    41    40   ar
    65    42   101    1
    66    43    45   ar
    67    43    41   ar
    68    44    69    1
    69    44    42   ar
    70    45    44   ar
    71    46   105    1
    72    46    48    1
    73    47    46    1
    74    48   100    1
    75    48    49    1
    76    49   103    1
    77    49    50    1
    78    50    15    2
    79    50    18    1
    80    51    65    1
    81    51    52    1
    82    51    26    1
    83    52    21    2
    84    51    53    1
    85    54    56    1
    86    54   108    1
    87    55    24    2
    88    55    54    1
    89    56    57    1
    90    56   113    1
    91    57    96    1
    92    57    90    1
    93    58    59    1
    94    58    57    1
    95    59    77    1
    96    59    81    1
    97    67    39    1
    98    68    43    1
    99    71    53    1
   100    72    58    1
   101    74    36    1
   102    76    30    1
   103    78    45    1
   104    80    27    1
   105    84    48    1
   106    85    13    1
   107    88    56    1
   108    91    58    1
   109    92    39    1
   110    93    35    1
   111    95    41    1
   112    98    10    1
   113   104    25    1
   114   107    29    1
   115   109    49    1
   116   111    53    1
   117   112    30    1
   118   114    59    1
   119   115    34    1
   120   116    53    1
   121   118     2    1
   122   119     5    1
   123   120     8    1
   124   122    11    1
   125   124    14    1
   126   125    17    1
   127   126    20    1
   128   127    23    1
   129   129    28    1
