5kv
  Mrv15b2301242605482D          

129129  0  0  1  0            999 V2000
   -7.3628    8.8281    0.0000 C   0  0  2  0  0  0  0  0  0  0  0  0
   -7.3628    9.6531    0.0000 N   0  0  0  0  0  0  0  0  0  0  0  0
   -6.6483    7.5906    0.0000 O   0  0  0  0  0  0  0  0  0  0  0  0
   -6.6483    8.4156    0.0000 C   0  0  0  0  0  0  0  0  0  0  0  0
  -10.2207    8.8281    0.0000 N   0  0  0  0  0  0  0  0  0  0  0  0
   -4.5049    9.6531    0.0000 O   0  0  0  0  0  0  0  0  0  0  0  0
   -8.0773    8.4156    0.0000 C   0  0  0  0  0  0  0  0  0  0  0  0
  -10.9352    7.5906    0.0000 N   0  0  0  0  0  4  0  0  0  0  0  0
   -0.2181    9.6531    0.0000 O   0  0  0  0  0  0  0  0  0  0  0  0
   -8.7917    8.8281    0.0000 C   0  0  0  0  0  0  0  0  0  0  0  0
  -11.6496    8.8281    0.0000 N   0  0  0  0  0  0  0  0  0  0  0  0
    1.9253    7.5906    0.0000 O   0  0  0  0  0  0  0  0  0  0  0  0
   -9.5062    8.4156    0.0000 C   0  0  0  0  0  0  0  0  0  0  0  0
   -5.9339    8.8281    0.0000 N   0  0  0  0  0  0  0  0  0  0  0  0
    1.2109   11.3031    0.0000 O   0  0  0  0  0  0  0  0  0  0  0  0
  -10.9352    8.4156    0.0000 C   0  0  0  0  0  0  0  0  0  0  0  0
   -3.7904    8.4156    0.0000 N   0  0  0  0  0  0  0  0  0  0  0  0
    2.6398   11.3031    0.0000 O   0  0  0  0  0  0  0  0  0  0  0  0
   -5.2194    8.4156    0.0000 C   0  0  2  0  0  0  0  0  0  0  0  0
   -1.6470    8.8281    0.0000 N   0  0  0  0  0  0  0  0  0  0  0  0
    4.0687    9.6531    0.0000 O   0  0  0  0  0  0  0  0  0  0  0  0
   -4.5049    8.8281    0.0000 C   0  0  0  0  0  0  0  0  0  0  0  0
    0.4964    8.4156    0.0000 N   0  0  0  0  0  0  0  0  0  0  0  0
    4.7832   10.0656    0.0000 O   0  0  0  0  0  0  0  0  0  0  0  0
   -5.2194    7.5906    0.0000 C   0  0  0  0  0  0  0  0  0  0  0  0
    2.6398    8.8281    0.0000 N   0  0  0  0  0  0  0  0  0  0  0  0
   -4.5049    7.1781    0.0000 C   0  0  0  0  0  0  0  0  0  0  0  0
    4.7832    8.4156    0.0000 N   0  0  0  0  0  0  0  0  0  0  0  0
   -5.9339    7.1781    0.0000 C   0  0  0  0  0  0  0  0  0  0  0  0
    6.2121   10.0656    0.0000 N   0  0  0  0  0  0  0  0  0  0  0  0
   -3.0760    8.8281    0.0000 C   0  0  2  0  0  0  0  0  0  0  0  0
   -2.3615    8.4156    0.0000 C   0  0  0  0  0  0  0  0  0  0  0  0
   -3.0760    9.6531    0.0000 C   0  0  0  0  0  0  0  0  0  0  0  0
   -2.3615   10.0656    0.0000 C   0  0  0  0  0  0  0  0  0  0  0  0
   -1.6470    9.6531    0.0000 C   0  0  0  0  0  0  0  0  0  0  0  0
   -2.3615   10.8906    0.0000 C   0  0  0  0  0  0  0  0  0  0  0  0
   -0.9326    8.4156    0.0000 C   0  0  2  0  0  0  0  0  0  0  0  0
   -0.2181    8.8281    0.0000 C   0  0  0  0  0  0  0  0  0  0  0  0
   -0.9326    7.5906    0.0000 C   0  0  0  0  0  0  0  0  0  0  0  0
   -0.2181    7.1781    0.0000 C   0  0  0  0  0  0  0  0  0  0  0  0
   -0.2181    6.3531    0.0000 C   0  0  0  0  0  0  0  0  0  0  0  0
    0.4964    7.5906    0.0000 C   0  0  0  0  0  0  0  0  0  0  0  0
    0.4964    5.9406    0.0000 C   0  0  0  0  0  0  0  0  0  0  0  0
    1.2109    7.1781    0.0000 C   0  0  0  0  0  0  0  0  0  0  0  0
    1.2109    6.3531    0.0000 C   0  0  0  0  0  0  0  0  0  0  0  0
    1.2109    8.8281    0.0000 C   0  0  2  0  0  0  0  0  0  0  0  0
    1.9253    8.4156    0.0000 C   0  0  0  0  0  0  0  0  0  0  0  0
    1.2109    9.6531    0.0000 C   0  0  0  0  0  0  0  0  0  0  0  0
    1.9253   10.0656    0.0000 C   0  0  0  0  0  0  0  0  0  0  0  0
    1.9253   10.8906    0.0000 C   0  0  0  0  0  0  0  0  0  0  0  0
    3.3543    8.4156    0.0000 C   0  0  2  0  0  0  0  0  0  0  0  0
    4.0687    8.8281    0.0000 C   0  0  0  0  0  0  0  0  0  0  0  0
    3.3543    7.5906    0.0000 C   0  0  0  0  0  0  0  0  0  0  0  0
    5.4977    8.8281    0.0000 C   0  0  2  0  0  0  0  0  0  0  0  0
    5.4977    9.6531    0.0000 C   0  0  0  0  0  0  0  0  0  0  0  0
    6.2121    8.4156    0.0000 C   0  0  0  0  0  0  0  0  0  0  0  0
    6.9266    8.8281    0.0000 C   0  0  0  0  0  0  0  0  0  0  0  0
    7.6411    8.4156    0.0000 C   0  0  0  0  0  0  0  0  0  0  0  0
    8.3556    8.8281    0.0000 C   0  0  0  0  0  0  0  0  0  0  0  0
   -1.0637    9.0697    0.0000 H   0  0  0  0  0  0  0  0  0  0  0  0
   -3.2192   10.4655    0.0000 H   0  0  0  0  0  0  0  0  0  0  0  0
   -5.2194    9.2406    0.0000 H   0  0  0  0  0  0  0  0  0  0  0  0
   -6.5658    6.6478    0.0000 H   0  0  0  0  0  0  0  0  0  0  0  0
   -2.7318    7.6783    0.0000 H   0  0  0  0  0  0  0  0  0  0  0  0
    3.3543    9.2406    0.0000 H   0  0  0  0  0  0  0  0  0  0  0  0
   -3.7080   10.1834    0.0000 H   0  0  0  0  0  0  0  0  0  0  0  0
   -1.7562    7.5426    0.0000 H   0  0  0  0  0  0  0  0  0  0  0  0
    0.4964    5.1156    0.0000 H   0  0  0  0  0  0  0  0  0  0  0  0
    1.9253    6.7656    0.0000 H   0  0  0  0  0  0  0  0  0  0  0  0
    3.3543   10.8906    0.0000 H   0  0  0  0  0  0  0  0  0  0  0  0
    2.5293    7.5906    0.0000 H   0  0  0  0  0  0  0  0  0  0  0  0
    7.6760    7.5913    0.0000 H   0  0  0  0  0  0  0  0  0  0  0  0
   -2.3353   11.7151    0.0000 H   0  0  0  0  0  0  0  0  0  0  0  0
   -3.0555   11.3366    0.0000 H   0  0  0  0  0  0  0  0  0  0  0  0
   -9.8765    7.6783    0.0000 H   0  0  0  0  0  0  0  0  0  0  0  0
    6.9266    9.6531    0.0000 H   0  0  0  0  0  0  0  0  0  0  0  0
    9.0733    8.4212    0.0000 H   0  0  0  0  0  0  0  0  0  0  0  0
    1.6234    5.6386    0.0000 H   0  0  0  0  0  0  0  0  0  0  0  0
   -5.2194    6.7656    0.0000 H   0  0  0  0  0  0  0  0  0  0  0  0
   -3.7904    6.7656    0.0000 H   0  0  0  0  0  0  0  0  0  0  0  0
    9.0678    9.2443    0.0000 H   0  0  0  0  0  0  0  0  0  0  0  0
   -8.0773    9.2406    0.0000 H   0  0  0  0  0  0  0  0  0  0  0  0
   -6.0771    6.3656    0.0000 H   0  0  0  0  0  0  0  0  0  0  0  0
    0.5789   10.1834    0.0000 H   0  0  0  0  0  0  0  0  0  0  0  0
   -9.1360    7.6783    0.0000 H   0  0  0  0  0  0  0  0  0  0  0  0
   -3.7904    9.2406    0.0000 H   0  0  0  0  0  0  0  0  0  0  0  0
   -7.7070    7.6783    0.0000 H   0  0  0  0  0  0  0  0  0  0  0  0
    6.8441    7.8853    0.0000 H   0  0  0  0  0  0  0  0  0  0  0  0
   -8.9350    9.6405    0.0000 H   0  0  0  0  0  0  0  0  0  0  0  0
    7.6411    9.2406    0.0000 H   0  0  0  0  0  0  0  0  0  0  0  0
    8.3641    8.0183    0.0000 H   0  0  0  0  0  0  0  0  0  0  0  0
   -1.3859    6.9013    0.0000 H   0  0  0  0  0  0  0  0  0  0  0  0
   -1.0637   10.2364    0.0000 H   0  0  0  0  0  0  0  0  0  0  0  0
   -8.4475    7.6783    0.0000 H   0  0  0  0  0  0  0  0  0  0  0  0
   -0.9326    5.9406    0.0000 H   0  0  0  0  0  0  0  0  0  0  0  0
    6.2121    9.2406    0.0000 H   0  0  0  0  0  0  0  0  0  0  0  0
   -0.2181    8.0031    0.0000 H   0  0  0  0  0  0  0  0  0  0  0  0
   -9.4237    9.3584    0.0000 H   0  0  0  0  0  0  0  0  0  0  0  0
   -1.9912    7.6783    0.0000 H   0  0  0  0  0  0  0  0  0  0  0  0
    1.0676   10.4655    0.0000 H   0  0  0  0  0  0  0  0  0  0  0  0
    0.4964    6.7656    0.0000 H   0  0  0  0  0  0  0  0  0  0  0  0
   -1.6406   11.2917    0.0000 H   0  0  0  0  0  0  0  0  0  0  0  0
    1.9253    9.2406    0.0000 H   0  0  0  0  0  0  0  0  0  0  0  0
   -4.5049    8.0031    0.0000 H   0  0  0  0  0  0  0  0  0  0  0  0
    0.4964    9.2406    0.0000 H   0  0  0  0  0  0  0  0  0  0  0  0
   -0.8220    9.6531    0.0000 H   0  0  0  0  0  0  0  0  0  0  0  0
   -5.9339    8.0031    0.0000 H   0  0  0  0  0  0  0  0  0  0  0  0
    5.4977    8.0031    0.0000 H   0  0  0  0  0  0  0  0  0  0  0  0
    2.6398   10.4781    0.0000 H   0  0  0  0  0  0  0  0  0  0  0  0
   -4.5049    6.3531    0.0000 H   0  0  0  0  0  0  0  0  0  0  0  0
    3.3543    6.7656    0.0000 H   0  0  0  0  0  0  0  0  0  0  0  0
    6.2121   10.8906    0.0000 H   0  0  0  0  0  0  0  0  0  0  0  0
    6.3554    7.6031    0.0000 H   0  0  0  0  0  0  0  0  0  0  0  0
    8.3534    9.6530    0.0000 H   0  0  0  0  0  0  0  0  0  0  0  0
   -1.6470   10.4781    0.0000 H   0  0  0  0  0  0  0  0  0  0  0  0
    4.1793    7.5906    0.0000 H   0  0  0  0  0  0  0  0  0  0  0  0
   -6.6256   10.0233    0.0000 H   0  0  0  0  0  0  0  0  0  0  0  0
   -7.4108   10.4767    0.0000 H   0  0  0  0  0  0  0  0  0  0  0  0
  -10.2207    9.6531    0.0000 H   0  0  0  0  0  0  0  0  0  0  0  0
  -10.2207    7.1781    0.0000 H   0  0  0  0  0  0  0  0  0  0  0  0
  -11.6496    7.1781    0.0000 H   0  0  0  0  0  0  0  0  0  0  0  0
  -12.3641    8.4156    0.0000 H   0  0  0  0  0  0  0  0  0  0  0  0
  -11.6496    9.6531    0.0000 H   0  0  0  0  0  0  0  0  0  0  0  0
   -5.9339    9.6531    0.0000 H   0  0  0  0  0  0  0  0  0  0  0  0
   -3.7904    7.5906    0.0000 H   0  0  0  0  0  0  0  0  0  0  0  0
   -2.3615    9.2406    0.0000 H   0  0  0  0  0  0  0  0  0  0  0  0
    1.2109    8.0031    0.0000 H   0  0  0  0  0  0  0  0  0  0  0  0
    2.6398    9.6531    0.0000 H   0  0  0  0  0  0  0  0  0  0  0  0
    4.7832    7.5906    0.0000 H   0  0  0  0  0  0  0  0  0  0  0  0
  1 82  1  1  0  0  0
  1  7  1  0  0  0  0
  1  2  1  6  0  0  0
  2117  1  0  0  0  0
  4  3  2  0  0  0  0
  4  1  1  0  0  0  0
  5 16  1  0  0  0  0
  7 94  1  0  0  0  0
  7 10  1  0  0  0  0
  7 87  1  0  0  0  0
  8121  1  0  0  0  0
 10 13  1  0  0  0  0
 10 89  1  0  0  0  0
 11123  1  0  0  0  0
 12 47  2  0  0  0  0
 13 75  1  0  0  0  0
 13  5  1  0  0  0  0
 14  4  1  0  0  0  0
 16  8  2  0  0  0  0
 16 11  1  0  0  0  0
 31 17  1  1  0  0  0
 18 70  1  0  0  0  0
 19 62  1  1  0  0  0
 19 14  1  6  0  0  0
 19 22  1  0  0  0  0
 20 32  1  0  0  0  0
 22 17  1  0  0  0  0
 22  6  2  0  0  0  0
 46 23  1  1  0  0  0
 25 19  1  0  0  0  0
 26128  1  0  0  0  0
 26 47  1  0  0  0  0
 27 79  1  0  0  0  0
 27 25  1  0  0  0  0
 27110  1  0  0  0  0
 28 52  1  0  0  0  0
 54 28  1  6  0  0  0
 29 63  1  0  0  0  0
 29 83  1  0  0  0  0
 29 25  1  0  0  0  0
 30 55  1  0  0  0  0
 31 86  1  6  0  0  0
 31 33  1  0  0  0  0
 32 64  1  0  0  0  0
 32 31  1  0  0  0  0
 32 99  1  0  0  0  0
 33 61  1  0  0  0  0
 33 66  1  0  0  0  0
 33 34  1  0  0  0  0
 34 36  1  0  0  0  0
 34 35  1  0  0  0  0
 35 60  1  0  0  0  0
 35106  1  0  0  0  0
 36102  1  0  0  0  0
 36 73  1  0  0  0  0
 37 97  1  1  0  0  0
 37 20  1  1  0  0  0
 37 38  1  0  0  0  0
 38 23  1  0  0  0  0
 38  9  2  0  0  0  0
 39 37  1  0  0  0  0
 40 42  1  0  0  0  0
 40 39  1  0  0  0  0
 41 40  2  0  0  0  0
 42101  1  0  0  0  0
 43 45  2  0  0  0  0
 43 41  1  0  0  0  0
 44 69  1  0  0  0  0
 44 42  2  3  0  0  0
 45 44  1  0  0  0  0
 46105  1  6  0  0  0
 46 48  1  0  0  0  0
 47 46  1  0  0  0  0
 48100  1  0  0  0  0
 48 49  1  0  0  0  0
 49103  1  0  0  0  0
 49 50  1  0  0  0  0
 50 15  2  0  0  0  0
 50 18  1  0  0  0  0
 51 65  1  1  0  0  0
 51 52  1  0  0  0  0
 51 26  1  0  0  0  0
 52 21  2  0  0  0  0
 51 53  1  1  0  0  0
 54 56  1  0  0  0  0
 54108  1  1  0  0  0
 55 24  2  0  0  0  0
 55 54  1  0  0  0  0
 56 57  1  0  0  0  0
 56113  1  0  0  0  0
 57 96  1  0  0  0  0
 57 90  1  0  0  0  0
 58 59  1  0  0  0  0
 58 57  1  0  0  0  0
 59 77  1  0  0  0  0
 59 81  1  0  0  0  0
 67 39  1  0  0  0  0
 68 43  1  0  0  0  0
 71 53  1  0  0  0  0
 72 58  1  0  0  0  0
 74 36  1  0  0  0  0
 76 30  1  0  0  0  0
 78 45  1  0  0  0  0
 80 27  1  0  0  0  0
 84 48  1  0  0  0  0
 85 13  1  0  0  0  0
 88 56  1  0  0  0  0
 91 58  1  0  0  0  0
 92 39  1  0  0  0  0
 93 35  1  0  0  0  0
 95 41  1  0  0  0  0
 98 10  1  0  0  0  0
104 25  1  0  0  0  0
107 29  1  0  0  0  0
109 49  1  0  0  0  0
111 53  1  0  0  0  0
112 30  1  0  0  0  0
114 59  1  0  0  0  0
115 34  1  0  0  0  0
116 53  1  0  0  0  0
118  2  1  0  0  0  0
119  5  1  0  0  0  0
120  8  1  0  0  0  0
122 11  1  0  0  0  0
124 14  1  0  0  0  0
125 17  1  0  0  0  0
126 20  1  0  0  0  0
127 23  1  0  0  0  0
129 28  1  0  0  0  0
M  END
