5kv
  Mrv15b2301242605483D          

129129  0  0  1  0            999 V2000
    4.8957    3.2419   14.2093 C   0  0  2  0  0  0  0  0  0  0  0  0
    5.7933    2.9264   13.0857 N   0  0  2  0  0  0  0  0  0  0  0  0
    4.9789    1.0348   14.9218 O   0  0  0  0  0  0  0  0  0  0  0  0
    4.2240    1.9786   14.6049 C   0  0  0  0  0  0  0  0  0  0  0  0
    3.6939    7.9087   12.7012 N   0  0  2  0  0  0  0  0  0  0  0  0
    1.5154    1.1033   12.1712 O   0  0  0  0  0  0  0  0  0  0  0  0
    3.9236    4.3624   13.7618 C   0  0  2  0  0  0  0  0  0  0  0  0
    2.8190    9.8599   12.0386 N   0  0  0  0  0  4  0  0  0  0  0  0
    8.6563   -3.4885   13.1832 O   0  0  0  0  0  0  0  0  0  0  0  0
    4.4745    5.7524   13.4137 C   0  0  1  0  0  0  0  0  0  0  0  0
    1.4549    8.1225   12.4025 N   0  0  2  0  0  0  0  0  0  0  0  0
    8.1005   -3.1279   18.8665 O   0  0  0  0  0  0  0  0  0  0  0  0
    3.2640    6.6082   13.0359 C   0  0  1  0  0  0  0  0  0  0  0  0
    2.8668    1.7865   14.5689 N   0  0  0  0  0  0  0  0  0  0  0  0
    3.5079   -5.9967   15.5139 O   0  0  0  0  0  0  0  0  0  0  0  0
    2.6574    8.6415   12.3776 C   0  0  0  0  0  0  0  0  0  0  0  0
    2.7970   -0.6643   12.1722 N   0  0  0  0  0  0  0  0  0  0  0  0
    4.6498   -6.5555   17.3730 O   0  0  0  0  0  0  0  0  0  0  0  0
    2.2171    0.5211   14.3742 C   0  0  2  0  0  0  0  0  0  0  0  0
    5.9176   -2.0322   13.6335 N   0  0  1  0  0  0  0  0  0  0  0  0
   12.0182   -2.5805   19.7463 O   0  0  0  0  0  0  0  0  0  0  0  0
    2.1491    0.2983   12.8927 C   0  0  0  0  0  0  0  0  0  0  0  0
    8.0863   -3.5738   15.2985 N   0  0  0  0  0  0  0  0  0  0  0  0
   14.4382    0.2449   18.2081 O   0  0  0  0  0  0  0  0  0  0  0  0
    0.8318    0.4586   15.0449 C   0  0  2  0  0  0  0  0  0  0  0  0
    9.7985   -3.4843   17.3879 N   0  0  0  0  0  0  0  0  0  0  0  0
    0.9795    0.7176   16.5456 C   0  0  0  0  0  0  0  0  0  0  0  0
   12.6828   -2.4886   17.5624 N   0  0  0  0  0  0  0  0  0  0  0  0
    0.2203   -0.9264   14.8242 C   0  0  0  0  0  0  0  0  0  0  0  0
   14.1555   -0.2706   16.0230 N   0  0  0  0  0  0  0  0  0  0  0  0
    3.6392   -1.7115   12.6642 C   0  0  2  0  0  0  0  0  0  0  0  0
    5.1156   -1.2629   12.6523 C   0  0  1  0  0  0  0  0  0  0  0  0
    3.4692   -2.9958   11.8184 C   0  0  1  0  0  0  0  0  0  0  0  0
    2.1074   -3.7091   11.9352 C   0  0  1  0  0  0  0  0  0  0  0  0
    2.1042   -4.9515   11.0423 C   0  0  0  0  0  0  0  0  0  0  0  0
    1.8726   -4.1251   13.3888 C   0  0  0  0  0  0  0  0  0  0  0  0
    7.3391   -1.6456   13.7839 C   0  0  2  0  0  0  0  0  0  0  0  0
    8.0591   -2.8990   14.1158 C   0  0  0  0  0  0  0  0  0  0  0  0
    7.4646   -0.5079   14.8172 C   0  0  1  0  0  0  0  0  0  0  0  0
    8.8086    0.0740   15.0087 C   0  0  0  0  0  0  0  0  0  0  0  0
    9.2655    1.1158   14.1896 C   0  0  0  0  0  0  0  0  0  0  0  0
    9.6072   -0.3865   16.0581 C   0  0  0  0  0  0  0  0  0  0  0  0
   10.5554    1.6398   14.3850 C   0  0  0  0  0  0  0  0  0  0  0  0
   10.8904    0.0991   16.2608 C   0  0  0  0  0  0  0  0  0  0  0  0
   11.4269    1.1767   15.4556 C   0  0  0  0  0  0  0  0  0  0  0  0
    7.4808   -3.2856   16.5788 C   0  0  2  0  0  0  0  0  0  0  0  0
    8.4796   -3.2886   17.6794 C   0  0  0  0  0  0  0  0  0  0  0  0
    6.5240   -4.4571   16.8724 C   0  0  2  0  0  0  0  0  0  0  0  0
    5.3128   -4.6113   15.9402 C   0  0  1  0  0  0  0  0  0  0  0  0
    4.4620   -5.7585   16.2824 C   0  0  0  0  0  0  0  0  0  0  0  0
   10.7980   -3.9423   18.2901 C   0  0  2  0  0  0  0  0  0  0  0  0
   11.8593   -2.9392   18.5553 C   0  0  0  0  0  0  0  0  0  0  0  0
   11.3529   -5.2417   17.6728 C   0  0  0  0  0  0  0  0  0  0  0  0
   14.0361   -2.0513   17.7580 C   0  0  2  0  0  0  0  0  0  0  0  0
   14.2268   -0.6349   17.3359 C   0  0  0  0  0  0  0  0  0  0  0  0
   14.9573   -2.9980   16.9533 C   0  0  1  0  0  0  0  0  0  0  0  0
   14.9029   -4.5015   17.3100 C   0  0  2  0  0  0  0  0  0  0  0  0
   15.7645   -5.3202   16.3429 C   0  0  1  0  0  0  0  0  0  0  0  0
   15.6899   -6.8007   16.7217 C   0  0  0  0  0  0  0  0  0  0  0  0
    1.1414   -5.4559   11.1249 H   0  0  0  0  0  0  0  0  0  0  0  0
    3.6729   -2.7709   10.7715 H   0  0  0  0  0  0  0  0  0  0  0  0
    2.7678   -0.2635   14.8807 H   0  0  0  0  0  0  0  0  0  0  0  0
   -0.7599   -0.9707   15.2988 H   0  0  0  0  0  0  0  0  0  0  0  0
    5.1745   -0.2004   12.8882 H   0  0  0  0  0  0  0  0  0  0  0  0
   10.3608   -4.2508   19.2437 H   0  0  0  0  0  0  0  0  0  0  0  0
    4.2052   -3.7147   12.1783 H   0  0  0  0  0  0  0  0  0  0  0  0
    6.7571    0.2845   14.5728 H   0  0  0  0  0  0  0  0  0  0  0  0
   10.8868    2.3999   13.7799 H   0  0  0  0  0  0  0  0  0  0  0  0
   11.4461   -0.2857   17.0194 H   0  0  0  0  0  0  0  0  0  0  0  0
    4.0448   -7.2973   17.5852 H   0  0  0  0  0  0  0  0  0  0  0  0
   11.8110   -5.0193   16.7090 H   0  0  0  0  0  0  0  0  0  0  0  0
   15.3962   -5.1864   15.3258 H   0  0  0  0  0  0  0  0  0  0  0  0
    0.9099   -4.6294   13.4714 H   0  0  0  0  0  0  0  0  0  0  0  0
    1.8749   -3.2400   14.0249 H   0  0  0  0  0  0  0  0  0  0  0  0
    2.5770    6.6588   13.8805 H   0  0  0  0  0  0  0  0  0  0  0  0
   14.2461    0.6727   15.7713 H   0  0  0  0  0  0  0  0  0  0  0  0
   16.3028   -7.3831   16.0338 H   0  0  0  0  0  0  0  0  0  0  0  0
   12.4336    1.6250   15.6139 H   0  0  0  0  0  0  0  0  0  0  0  0
   -0.0007    0.6733   17.0202 H   0  0  0  0  0  0  0  0  0  0  0  0
    1.6295   -0.0404   16.9828 H   0  0  0  0  0  0  0  0  0  0  0  0
   14.6555   -7.1392   16.6624 H   0  0  0  0  0  0  0  0  0  0  0  0
    5.5041    3.5925   15.0470 H   0  0  0  0  0  0  0  0  0  0  0  0
    0.1150   -1.1110   13.7551 H   0  0  0  0  0  0  0  0  0  0  0  0
    6.1820   -4.3966   17.9056 H   0  0  0  0  0  0  0  0  0  0  0  0
    2.7563    6.1620   12.1807 H   0  0  0  0  0  0  0  0  0  0  0  0
    3.4125   -1.9620   13.6952 H   0  0  0  0  0  0  0  0  0  0  0  0
    3.1223    4.4621   14.4939 H   0  0  0  0  0  0  0  0  0  0  0  0
   14.7677   -2.8703   15.8876 H   0  0  0  0  0  0  0  0  0  0  0  0
    4.9624    6.1797   14.2898 H   0  0  0  0  0  0  0  0  0  0  0  0
   13.8711   -4.8494   17.2610 H   0  0  0  0  0  0  0  0  0  0  0  0
   16.7989   -4.9817   16.4023 H   0  0  0  0  0  0  0  0  0  0  0  0
    7.1593   -0.9772   15.7524 H   0  0  0  0  0  0  0  0  0  0  0  0
    2.2715   -4.6552   10.0068 H   0  0  0  0  0  0  0  0  0  0  0  0
    3.4143    3.9866   12.8744 H   0  0  0  0  0  0  0  0  0  0  0  0
    8.6712    1.5075   13.4755 H   0  0  0  0  0  0  0  0  0  0  0  0
   15.2167   -4.6198   18.3472 H   0  0  0  0  0  0  0  0  0  0  0  0
    7.7529   -1.2554   12.8495 H   0  0  0  0  0  0  0  0  0  0  0  0
    5.1984    5.6776   12.6022 H   0  0  0  0  0  0  0  0  0  0  0  0
    5.5382   -1.3573   11.6519 H   0  0  0  0  0  0  0  0  0  0  0  0
    7.0900   -5.3867   16.8119 H   0  0  0  0  0  0  0  0  0  0  0  0
    9.2699   -1.0590   16.6844 H   0  0  0  0  0  0  0  0  0  0  0  0
    2.6659   -4.8022   13.7055 H   0  0  0  0  0  0  0  0  0  0  0  0
    4.7180   -3.6982   15.9631 H   0  0  0  0  0  0  0  0  0  0  0  0
    0.1819    1.2166   14.6077 H   0  0  0  0  0  0  0  0  0  0  0  0
    6.9333   -2.3422   16.6361 H   0  0  0  0  0  0  0  0  0  0  0  0
    2.8974   -5.6287   11.3591 H   0  0  0  0  0  0  0  0  0  0  0  0
    0.8702   -1.6844   15.2615 H   0  0  0  0  0  0  0  0  0  0  0  0
   14.3321   -2.1261   18.8009 H   0  0  0  0  0  0  0  0  0  0  0  0
    5.6196   -4.6945   14.8975 H   0  0  0  0  0  0  0  0  0  0  0  0
    1.4152    1.7043   16.7028 H   0  0  0  0  0  0  0  0  0  0  0  0
   10.5395   -5.9536   17.5328 H   0  0  0  0  0  0  0  0  0  0  0  0
   14.0155   -0.9442   15.3393 H   0  0  0  0  0  0  0  0  0  0  0  0
   15.9886   -2.6756   17.0969 H   0  0  0  0  0  0  0  0  0  0  0  0
   16.0582   -6.9345   17.7388 H   0  0  0  0  0  0  0  0  0  0  0  0
    1.3142   -3.0320   11.6185 H   0  0  0  0  0  0  0  0  0  0  0  0
   12.1004   -5.6706   18.3401 H   0  0  0  0  0  0  0  0  0  0  0  0
    5.2416    2.5962   12.2913 H   0  0  0  0  0  0  0  0  0  0  0  0
    6.4515    2.1980   13.3696 H   0  0  0  0  0  0  0  0  0  0  0  0
    4.3054    7.8637   11.9495 H   0  0  0  0  0  0  0  0  0  0  0  0
    3.6773   10.2304   12.0209 H   0  0  0  0  0  0  0  0  0  0  0  0
    2.0792   10.3830   11.8077 H   0  0  0  0  0  0  0  0  0  0  0  0
    0.8072    8.7943   12.1378 H   0  0  0  0  0  0  0  0  0  0  0  0
    1.2537    7.8154   13.3003 H   0  0  0  0  0  0  0  0  0  0  0  0
    2.3109    2.5803   14.5511 H   0  0  0  0  0  0  0  0  0  0  0  0
    2.6760   -0.6260   11.2088 H   0  0  0  0  0  0  0  0  0  0  0  0
    5.4584   -2.0035   14.5460 H   0  0  0  0  0  0  0  0  0  0  0  0
    8.5771   -4.4118   15.2666 H   0  0  0  0  0  0  0  0  0  0  0  0
   10.0659   -3.3785   16.4604 H   0  0  0  0  0  0  0  0  0  0  0  0
   12.3734   -2.6071   16.6478 H   0  0  0  0  0  0  0  0  0  0  0  0
  1 82  1  0  0  0  0
  1  7  1  0  0  0  0
  1  2  1  0  0  0  0
  2117  1  0  0  0  0
  4  3  2  0  0  0  0
  4  1  1  0  0  0  0
  5 16  1  0  0  0  0
  7 94  1  0  0  0  0
  7 10  1  0  0  0  0
  7 87  1  0  0  0  0
  8121  1  0  0  0  0
 10 13  1  0  0  0  0
 10 89  1  0  0  0  0
 11123  1  0  0  0  0
 12 47  2  0  0  0  0
 13 75  1  0  0  0  0
 13  5  1  0  0  0  0
 14  4  1  0  0  0  0
 16  8  2  0  0  0  0
 16 11  1  0  0  0  0
 31 17  1  0  0  0  0
 18 70  1  0  0  0  0
 19 62  1  0  0  0  0
 19 14  1  0  0  0  0
 19 22  1  0  0  0  0
 20 32  1  0  0  0  0
 22 17  1  0  0  0  0
 22  6  2  0  0  0  0
 46 23  1  0  0  0  0
 25 19  1  0  0  0  0
 26128  1  0  0  0  0
 26 47  1  0  0  0  0
 27 79  1  0  0  0  0
 27 25  1  0  0  0  0
 27110  1  0  0  0  0
 28 52  1  0  0  0  0
 54 28  1  0  0  0  0
 29 63  1  0  0  0  0
 29 83  1  0  0  0  0
 29 25  1  0  0  0  0
 30 55  1  0  0  0  0
 31 86  1  0  0  0  0
 31 33  1  0  0  0  0
 32 64  1  0  0  0  0
 32 31  1  0  0  0  0
 32 99  1  0  0  0  0
 33 61  1  0  0  0  0
 33 66  1  0  0  0  0
 33 34  1  0  0  0  0
 34 36  1  0  0  0  0
 34 35  1  0  0  0  0
 35 60  1  0  0  0  0
 35106  1  0  0  0  0
 36102  1  0  0  0  0
 36 73  1  0  0  0  0
 37 97  1  0  0  0  0
 37 20  1  0  0  0  0
 37 38  1  0  0  0  0
 38 23  1  0  0  0  0
 38  9  2  0  0  0  0
 39 37  1  0  0  0  0
 40 42  1  0  0  0  0
 40 39  1  0  0  0  0
 41 40  2  0  0  0  0
 42101  1  0  0  0  0
 43 45  2  0  0  0  0
 43 41  1  0  0  0  0
 44 69  1  0  0  0  0
 44 42  2  0  0  0  0
 45 44  1  0  0  0  0
 46105  1  0  0  0  0
 46 48  1  0  0  0  0
 47 46  1  0  0  0  0
 48100  1  0  0  0  0
 48 49  1  0  0  0  0
 49103  1  0  0  0  0
 49 50  1  0  0  0  0
 50 15  2  0  0  0  0
 50 18  1  0  0  0  0
 51 65  1  0  0  0  0
 51 52  1  0  0  0  0
 51 26  1  0  0  0  0
 52 21  2  0  0  0  0
 51 53  1  0  0  0  0
 54 56  1  0  0  0  0
 54108  1  0  0  0  0
 55 24  2  0  0  0  0
 55 54  1  0  0  0  0
 56 57  1  0  0  0  0
 56113  1  0  0  0  0
 57 96  1  0  0  0  0
 57 90  1  0  0  0  0
 58 59  1  0  0  0  0
 58 57  1  0  0  0  0
 59 77  1  0  0  0  0
 59 81  1  0  0  0  0
 67 39  1  0  0  0  0
 68 43  1  0  0  0  0
 71 53  1  0  0  0  0
 72 58  1  0  0  0  0
 74 36  1  0  0  0  0
 76 30  1  0  0  0  0
 78 45  1  0  0  0  0
 80 27  1  0  0  0  0
 84 48  1  0  0  0  0
 85 13  1  0  0  0  0
 88 56  1  0  0  0  0
 91 58  1  0  0  0  0
 92 39  1  0  0  0  0
 93 35  1  0  0  0  0
 95 41  1  0  0  0  0
 98 10  1  0  0  0  0
104 25  1  0  0  0  0
107 29  1  0  0  0  0
109 49  1  0  0  0  0
111 53  1  0  0  0  0
112 30  1  0  0  0  0
114 59  1  0  0  0  0
115 34  1  0  0  0  0
116 53  1  0  0  0  0
118  2  1  0  0  0  0
119  5  1  0  0  0  0
120  8  1  0  0  0  0
122 11  1  0  0  0  0
124 14  1  0  0  0  0
125 17  1  0  0  0  0
126 20  1  0  0  0  0
127 23  1  0  0  0  0
129 28  1  0  0  0  0
M  END
