lig
 OpenBabel01242608103D

 82 84  0  0  1  0  0  0  0  0999 V2000
    6.6210   21.6220    5.9190 S   0  0  0  0  0  0  0  0  0  0  0  0
    7.1970   22.5700    5.0060 O   0  0  0  0  0  0  0  0  0  0  0  0
    5.2160   21.6780    6.1610 O   0  0  0  0  0  0  0  0  0  0  0  0
    8.4910   20.5780   -0.6840 C   0  0  0  0  0  0  0  0  0  0  0  0
    8.9520   21.1350    0.4700 C   0  0  0  0  0  0  0  0  0  0  0  0
    8.6110   20.5470    1.7520 C   0  0  0  0  0  0  0  0  0  0  0  0
    7.8370   19.4420    1.8080 C   0  0  0  0  0  0  0  0  0  0  0  0
    7.3020   18.8100    0.5580 C   0  0  0  0  0  0  0  0  0  0  0  0
    7.6630   19.4050   -0.6580 C   0  0  0  0  0  0  0  0  0  0  0  0
    7.2020   18.8360   -1.8950 C   0  0  0  0  0  0  0  0  0  0  0  0
    6.4000   17.7250   -1.8720 C   0  0  0  0  0  0  0  0  0  0  0  0
    6.0270   17.1270   -0.6360 C   0  0  0  0  0  0  0  0  0  0  0  0
    6.4850   17.6740    0.5660 C   0  0  0  0  0  0  0  0  0  0  0  0
    0.8330   16.7560    1.3920 O   0  0  0  0  0  0  0  0  0  0  0  0
    0.5440   17.7320    0.3250 C   0  0  0  0  0  0  0  0  0  0  0  0
    2.0570   18.7450    1.9350 N   0  0  0  0  0  0  0  0  0  0  0  0
    1.5590   18.8860    0.5560 C   0  0  1  0  0  0  0  0  0  0  0  0
    2.7730   18.7840   -0.3990 C   0  0  0  0  0  0  0  0  0  0  0  0
    3.6070   20.0130   -0.6960 C   0  0  0  0  0  0  0  0  0  0  0  0
    4.3250   20.7120    0.2810 C   0  0  0  0  0  0  0  0  0  0  0  0
    5.1390   21.8120   -0.0140 C   0  0  0  0  0  0  0  0  0  0  0  0
    5.2350   22.2400   -1.3430 C   0  0  0  0  0  0  0  0  0  0  0  0
    4.5510   21.5480   -2.3400 C   0  0  0  0  0  0  0  0  0  0  0  0
    3.7440   20.4500   -2.0240 C   0  0  0  0  0  0  0  0  0  0  0  0
    4.0580   19.8270    4.1670 N   0  0  0  0  0  0  0  0  0  0  0  0
    2.6510   19.3550    4.2450 C   0  0  2  0  0  0  0  0  0  0  0  0
    2.0520   19.7810    2.8510 C   0  0  0  0  0  0  0  0  0  0  0  0
    1.5660   20.8720    2.5940 O   0  0  0  0  0  0  0  0  0  0  0  0
    1.8570   19.9250    5.4460 C   0  0  0  0  0  0  0  0  0  0  0  0
    0.3960   19.4450    5.4290 C   0  0  0  0  0  0  0  0  0  0  0  0
    2.6140   19.4920    6.7240 C   0  0  0  0  0  0  0  0  0  0  0  0
    5.1360   19.0020    4.0570 C   0  0  0  0  0  0  0  0  0  0  0  0
    5.0400   17.7710    3.9800 O   0  0  0  0  0  0  0  0  0  0  0  0
    6.5010   19.7110    3.9380 C   0  0  2  0  0  0  0  0  0  0  0  0
    7.3870   18.7490    3.1060 C   0  0  0  0  0  0  0  0  0  0  0  0
    7.1440   20.0210    5.3290 C   0  0  0  0  0  0  0  0  0  0  0  0
    6.4910   21.3910    8.7100 C   0  0  0  0  0  0  0  0  0  0  0  0
    7.4290   21.8340    7.5600 C   0  0  0  0  0  0  0  0  0  0  0  0
    7.6420   23.3600    7.7150 C   0  0  0  0  0  0  0  0  0  0  0  0
    8.7840   21.0840    7.5860 C   0  0  0  0  0  0  0  0  0  0  0  0
    1.2880   16.0450    0.9550 H   0  0  0  0  0  0  0  0  0  0  0  0
    2.4220   17.8390    2.2290 H   0  0  0  0  0  0  0  0  0  0  0  0
    4.2270   20.8330    4.1970 H   0  0  0  0  0  0  0  0  0  0  0  0
    8.7402   21.0049   -1.5899 H   0  0  0  0  0  0  0  0  0  0  0  0
    9.5459   21.9782    0.4326 H   0  0  0  0  0  0  0  0  0  0  0  0
    8.9611   20.9746    2.6236 H   0  0  0  0  0  0  0  0  0  0  0  0
    7.4734   19.2617   -2.7951 H   0  0  0  0  0  0  0  0  0  0  0  0
    6.0636   17.3185   -2.7589 H   0  0  0  0  0  0  0  0  0  0  0  0
    5.4203   16.2922   -0.6270 H   0  0  0  0  0  0  0  0  0  0  0  0
    6.2195   17.2383    1.4630 H   0  0  0  0  0  0  0  0  0  0  0  0
    0.6885   17.2904   -0.6388 H   0  0  0  0  0  0  0  0  0  0  0  0
   -0.4695   18.0739    0.3544 H   0  0  0  0  0  0  0  0  0  0  0  0
    1.0729   19.8227    0.3792 H   0  0  0  0  0  0  0  0  0  0  0  0
    3.4350   18.0549    0.0194 H   0  0  0  0  0  0  0  0  0  0  0  0
    2.3250   18.5561   -1.3436 H   0  0  0  0  0  0  0  0  0  0  0  0
    4.2511   20.4027    1.2628 H   0  0  0  0  0  0  0  0  0  0  0  0
    5.6582   22.2979    0.7339 H   0  0  0  0  0  0  0  0  0  0  0  0
    5.8091   23.0633   -1.5830 H   0  0  0  0  0  0  0  0  0  0  0  0
    4.6407   21.8489   -3.3231 H   0  0  0  0  0  0  0  0  0  0  0  0
    3.2422   19.9540   -2.7771 H   0  0  0  0  0  0  0  0  0  0  0  0
    2.5916   18.3016    4.4229 H   0  0  0  0  0  0  0  0  0  0  0  0
    1.7991   20.9925    5.4022 H   0  0  0  0  0  0  0  0  0  0  0  0
    0.3713   18.3761    5.4708 H   0  0  0  0  0  0  0  0  0  0  0  0
   -0.0783   19.7779    4.5295 H   0  0  0  0  0  0  0  0  0  0  0  0
   -0.1214   19.8471    6.2749 H   0  0  0  0  0  0  0  0  0  0  0  0
    2.6684   18.4241    6.7617 H   0  0  0  0  0  0  0  0  0  0  0  0
    2.0938   19.8533    7.5864 H   0  0  0  0  0  0  0  0  0  0  0  0
    3.6034   19.8992    6.7077 H   0  0  0  0  0  0  0  0  0  0  0  0
    6.3946   20.6680    3.4713 H   0  0  0  0  0  0  0  0  0  0  0  0
    8.2482   18.4751    3.6789 H   0  0  0  0  0  0  0  0  0  0  0  0
    6.8225   17.8738    2.8605 H   0  0  0  0  0  0  0  0  0  0  0  0
    8.2097   20.0121    5.2337 H   0  0  0  0  0  0  0  0  0  0  0  0
    6.8291   19.2754    6.0288 H   0  0  0  0  0  0  0  0  0  0  0  0
    6.3157   20.3377    8.6416 H   0  0  0  0  0  0  0  0  0  0  0  0
    5.5603   21.9132    8.6324 H   0  0  0  0  0  0  0  0  0  0  0  0
    6.9489   21.6160    9.6505 H   0  0  0  0  0  0  0  0  0  0  0  0
    8.2875   23.7109    6.9371 H   0  0  0  0  0  0  0  0  0  0  0  0
    8.0871   23.5632    8.6666 H   0  0  0  0  0  0  0  0  0  0  0  0
    6.6986   23.8604    7.6485 H   0  0  0  0  0  0  0  0  0  0  0  0
    9.3949   21.4231    6.7756 H   0  0  0  0  0  0  0  0  0  0  0  0
    8.6117   20.0326    7.4871 H   0  0  0  0  0  0  0  0  0  0  0  0
    9.2814   21.2782    8.5132 H   0  0  0  0  0  0  0  0  0  0  0  0
  1  3  2  0  0  0  0
  1 38  1  0  0  0  0
  2  1  2  0  0  0  0
  4  9  2  0  0  0  0
  4  5  1  0  0  0  0
  4 44  1  0  0  0  0
  5  6  2  0  0  0  0
  5 45  1  0  0  0  0
  6  7  1  0  0  0  0
  6 46  1  0  0  0  0
  7 35  1  0  0  0  0
  8 13  1  0  0  0  0
  8  7  2  0  0  0  0
  9  8  1  0  0  0  0
 10 11  2  0  0  0  0
 10  9  1  0  0  0  0
 10 47  1  0  0  0  0
 11 12  1  0  0  0  0
 11 48  1  0  0  0  0
 12 13  2  0  0  0  0
 12 49  1  0  0  0  0
 13 50  1  0  0  0  0
 15 17  1  0  0  0  0
 15 14  1  0  0  0  0
 15 51  1  0  0  0  0
 15 52  1  0  0  0  0
 16 42  1  0  0  0  0
 16 27  1  0  0  0  0
 17 16  1  0  0  0  0
 17 53  1  6  0  0  0
 18 17  1  0  0  0  0
 18 54  1  0  0  0  0
 18 55  1  0  0  0  0
 19 18  1  0  0  0  0
 19 20  1  0  0  0  0
 20 56  1  0  0  0  0
 21 20  2  0  0  0  0
 21 57  1  0  0  0  0
 22 21  1  0  0  0  0
 22 58  1  0  0  0  0
 23 24  1  0  0  0  0
 23 22  2  0  0  0  0
 23 59  1  0  0  0  0
 24 19  2  0  0  0  0
 24 60  1  0  0  0  0
 25 43  1  0  0  0  0
 25 26  1  0  0  0  0
 26 29  1  0  0  0  0
 26 61  1  1  0  0  0
 27 26  1  0  0  0  0
 28 27  2  0  0  0  0
 29 31  1  0  0  0  0
 29 62  1  0  0  0  0
 30 29  1  0  0  0  0
 30 63  1  0  0  0  0
 30 64  1  0  0  0  0
 30 65  1  0  0  0  0
 31 66  1  0  0  0  0
 31 67  1  0  0  0  0
 31 68  1  0  0  0  0
 32 25  1  0  0  0  0
 33 32  2  0  0  0  0
 34 32  1  0  0  0  0
 34 36  1  0  0  0  0
 34 69  1  6  0  0  0
 35 34  1  0  0  0  0
 35 70  1  0  0  0  0
 35 71  1  0  0  0  0
 36  1  1  0  0  0  0
 36 72  1  0  0  0  0
 36 73  1  0  0  0  0
 37 74  1  0  0  0  0
 37 75  1  0  0  0  0
 37 76  1  0  0  0  0
 38 40  1  0  0  0  0
 38 39  1  0  0  0  0
 38 37  1  0  0  0  0
 39 77  1  0  0  0  0
 39 78  1  0  0  0  0
 39 79  1  0  0  0  0
 40 80  1  0  0  0  0
 40 81  1  0  0  0  0
 40 82  1  0  0  0  0
 41 14  1  0  0  0  0
M  END
