hyb
  Mrv15b2301242608103D          

 82 84  0  0  1  0            999 V2000
   -1.8030   -3.6796   -8.2040 S   0  0  2  0  0  0  0  0  0  0  0  0
   -0.3694   -3.5615   -7.4733 O   0  0  0  0  0  0  0  0  0  0  0  0
   -2.8469   -4.2223   -7.0971 O   0  0  0  0  0  0  0  0  0  0  0  0
   -8.0127   -5.7382  -11.8075 C   0  0  0  0  0  0  0  0  0  0  0  0
   -6.9642   -6.0259  -12.6821 C   0  0  0  0  0  0  0  0  0  0  0  0
   -5.6454   -5.8096  -12.2735 C   0  0  0  0  0  0  0  0  0  0  0  0
   -5.2610   -5.1410  -11.0466 C   0  0  0  0  0  0  0  0  0  0  0  0
   -6.3938   -4.8984  -10.1493 C   0  0  0  0  0  0  0  0  0  0  0  0
   -7.7387   -5.2284  -10.5361 C   0  0  0  0  0  0  0  0  0  0  0  0
   -8.8177   -5.0040   -9.6354 C   0  0  0  0  0  0  0  0  0  0  0  0
   -8.5528   -4.4934   -8.3526 C   0  0  0  0  0  0  0  0  0  0  0  0
   -7.2508   -4.1303   -7.9854 C   0  0  0  0  0  0  0  0  0  0  0  0
   -6.1829   -4.3197   -8.8744 C   0  0  0  0  0  0  0  0  0  0  0  0
   -4.0865  -10.3065  -16.0519 O   0  0  0  0  0  0  0  0  0  0  0  0
   -5.2155   -9.6813  -15.4548 C   0  0  1  0  0  0  0  0  0  0  0  0
   -3.8590   -8.4139  -13.8492 N   0  0  0  0  0  0  0  0  0  0  0  0
   -4.8616   -8.2801  -14.8781 C   0  0  1  0  0  0  0  0  0  0  0  0
   -4.4530   -7.2789  -16.0238 C   0  0  2  0  0  0  0  0  0  0  0  0
   -4.1783   -5.8570  -15.6294 C   0  0  0  0  0  0  0  0  0  0  0  0
   -2.8558   -5.3459  -15.6008 C   0  0  0  0  0  0  0  0  0  0  0  0
   -2.5877   -4.0605  -15.0875 C   0  0  0  0  0  0  0  0  0  0  0  0
   -3.6357   -3.2635  -14.5919 C   0  0  0  0  0  0  0  0  0  0  0  0
   -4.9632   -3.7032  -14.7273 C   0  0  0  0  0  0  0  0  0  0  0  0
   -5.2313   -4.9715  -15.2877 C   0  0  0  0  0  0  0  0  0  0  0  0
   -2.8748   -8.0661  -10.8080 N   0  0  0  0  0  0  0  0  0  0  0  0
   -2.7901   -9.1591  -11.7375 C   0  0  2  0  0  0  0  0  0  0  0  0
   -3.9846   -9.0428  -12.6333 C   0  0  0  0  0  0  0  0  0  0  0  0
   -5.0875   -9.4912  -12.2390 O   0  0  0  0  0  0  0  0  0  0  0  0
   -2.5919  -10.5032  -10.9427 C   0  0  2  0  0  0  0  0  0  0  0  0
   -1.3236  -10.4719  -10.0240 C   0  0  0  0  0  0  0  0  0  0  0  0
   -2.5344  -11.7159  -11.9110 C   0  0  0  0  0  0  0  0  0  0  0  0
   -2.4904   -6.7678  -11.0708 C   0  0  0  0  0  0  0  0  0  0  0  0
   -1.9426   -6.4475  -12.1552 O   0  0  0  0  0  0  0  0  0  0  0  0
   -2.8154   -5.7054  -10.0791 C   0  0  2  0  0  0  0  0  0  0  0  0
   -3.7317   -4.6860  -10.7962 C   0  0  2  0  0  0  0  0  0  0  0  0
   -1.5425   -4.9227   -9.5905 C   0  0  1  0  0  0  0  0  0  0  0  0
   -2.0001   -1.0590   -7.2978 C   0  0  0  0  0  0  0  0  0  0  0  0
   -2.1847   -1.8790   -8.5989 C   0  0  1  0  0  0  0  0  0  0  0  0
   -1.1471   -1.3321   -9.5921 C   0  0  0  0  0  0  0  0  0  0  0  0
   -3.5545   -1.4466   -9.1793 C   0  0  0  0  0  0  0  0  0  0  0  0
   -4.4621  -11.1056  -16.4763 H   0  0  0  0  0  0  0  0  0  0  0  0
   -2.9946   -8.0249  -14.0325 H   0  0  0  0  0  0  0  0  0  0  0  0
   -3.2597   -8.2572   -9.9246 H   0  0  0  0  0  0  0  0  0  0  0  0
   -8.9749   -5.8976  -12.1220 H   0  0  0  0  0  0  0  0  0  0  0  0
   -7.2007   -6.3827  -13.6037 H   0  0  0  0  0  0  0  0  0  0  0  0
   -4.8897   -6.1011  -12.8886 H   0  0  0  0  0  0  0  0  0  0  0  0
   -9.7763   -5.2103   -9.9253 H   0  0  0  0  0  0  0  0  0  0  0  0
   -9.3391   -4.3632   -7.7089 H   0  0  0  0  0  0  0  0  0  0  0  0
   -7.0887   -3.7232   -7.0679 H   0  0  0  0  0  0  0  0  0  0  0  0
   -5.2532   -4.0492   -8.5661 H   0  0  0  0  0  0  0  0  0  0  0  0
   -5.9975   -9.5853  -16.2132 H   0  0  0  0  0  0  0  0  0  0  0  0
   -5.5849  -10.3434  -14.6666 H   0  0  0  0  0  0  0  0  0  0  0  0
   -5.7705   -7.8886  -14.4317 H   0  0  0  0  0  0  0  0  0  0  0  0
   -5.2557   -7.2520  -16.7686 H   0  0  0  0  0  0  0  0  0  0  0  0
   -3.5790   -7.6876  -16.5370 H   0  0  0  0  0  0  0  0  0  0  0  0
   -2.0742   -5.9094  -15.9479 H   0  0  0  0  0  0  0  0  0  0  0  0
   -1.6283   -3.7062  -15.0713 H   0  0  0  0  0  0  0  0  0  0  0  0
   -3.4346   -2.3587  -14.1534 H   0  0  0  0  0  0  0  0  0  0  0  0
   -5.7329   -3.1050  -14.4136 H   0  0  0  0  0  0  0  0  0  0  0  0
   -6.2052   -5.2545  -15.4161 H   0  0  0  0  0  0  0  0  0  0  0  0
   -1.8932   -9.0399  -12.3508 H   0  0  0  0  0  0  0  0  0  0  0  0
   -3.4547  -10.6405  -10.2864 H   0  0  0  0  0  0  0  0  0  0  0  0
   -1.2136  -11.4142   -9.4863 H   0  0  0  0  0  0  0  0  0  0  0  0
   -1.3906   -9.6784   -9.2751 H   0  0  0  0  0  0  0  0  0  0  0  0
   -0.4199  -10.3049  -10.6135 H   0  0  0  0  0  0  0  0  0  0  0  0
   -2.4092  -12.6422  -11.3579 H   0  0  0  0  0  0  0  0  0  0  0  0
   -3.4541  -11.7944  -12.4885 H   0  0  0  0  0  0  0  0  0  0  0  0
   -1.7020  -11.6095  -12.6045 H   0  0  0  0  0  0  0  0  0  0  0  0
   -3.3183   -6.1769   -9.2036 H   0  0  0  0  0  0  0  0  0  0  0  0
   -3.7644   -3.7625  -10.2679 H   0  0  0  0  0  0  0  0  0  0  0  0
   -3.2501   -4.5321  -11.7618 H   0  0  0  0  0  0  0  0  0  0  0  0
   -1.0728   -4.4265  -10.4398 H   0  0  0  0  0  0  0  0  0  0  0  0
   -0.8519   -5.6630   -9.1867 H   0  0  0  0  0  0  0  0  0  0  0  0
   -2.2151   -0.0090   -7.4965 H   0  0  0  0  0  0  0  0  0  0  0  0
   -2.6826   -1.4313   -6.5338 H   0  0  0  0  0  0  0  0  0  0  0  0
   -0.9729   -1.1596   -6.9476 H   0  0  0  0  0  0  0  0  0  0  0  0
   -1.3733   -0.2898   -9.8167 H   0  0  0  0  0  0  0  0  0  0  0  0
   -1.1801   -1.9173  -10.5111 H   0  0  0  0  0  0  0  0  0  0  0  0
   -0.1520   -1.4014   -9.1528 H   0  0  0  0  0  0  0  0  0  0  0  0
   -3.5604   -0.3673   -9.3313 H   0  0  0  0  0  0  0  0  0  0  0  0
   -4.3469   -1.7197   -8.4824 H   0  0  0  0  0  0  0  0  0  0  0  0
   -3.7201   -1.9487  -10.1325 H   0  0  0  0  0  0  0  0  0  0  0  0
  1  3  2  0  0  0  0
  1 38  1  0  0  0  0
  2  1  2  0  0  0  0
  4  9  2  0  0  0  0
  4  5  1  0  0  0  0
  4 44  1  0  0  0  0
  5  6  2  0  0  0  0
  5 45  1  0  0  0  0
  6  7  1  0  0  0  0
  6 46  1  0  0  0  0
  7 35  1  0  0  0  0
  8 13  1  0  0  0  0
  8  7  2  0  0  0  0
  9  8  1  0  0  0  0
 10 11  2  0  0  0  0
 10  9  1  0  0  0  0
 10 47  1  0  0  0  0
 11 12  1  0  0  0  0
 11 48  1  0  0  0  0
 12 13  2  0  0  0  0
 12 49  1  0  0  0  0
 13 50  1  0  0  0  0
 15 17  1  0  0  0  0
 15 14  1  0  0  0  0
 15 51  1  0  0  0  0
 15 52  1  0  0  0  0
 16 42  1  0  0  0  0
 16 27  1  0  0  0  0
 17 16  1  0  0  0  0
 17 53  1  0  0  0  0
 18 17  1  0  0  0  0
 18 54  1  0  0  0  0
 18 55  1  0  0  0  0
 19 18  1  0  0  0  0
 19 20  1  0  0  0  0
 20 56  1  0  0  0  0
 21 20  2  0  0  0  0
 21 57  1  0  0  0  0
 22 21  1  0  0  0  0
 22 58  1  0  0  0  0
 23 24  1  0  0  0  0
 23 22  2  0  0  0  0
 23 59  1  0  0  0  0
 24 19  2  0  0  0  0
 24 60  1  0  0  0  0
 25 43  1  0  0  0  0
 26 25  1  0  0  0  0
 26 29  1  0  0  0  0
 26 61  1  0  0  0  0
 27 26  1  0  0  0  0
 28 27  2  0  0  0  0
 29 31  1  0  0  0  0
 29 62  1  0  0  0  0
 30 29  1  0  0  0  0
 30 63  1  0  0  0  0
 30 64  1  0  0  0  0
 30 65  1  0  0  0  0
 31 66  1  0  0  0  0
 31 67  1  0  0  0  0
 31 68  1  0  0  0  0
 32 25  1  0  0  0  0
 33 32  2  0  0  0  0
 34 32  1  0  0  0  0
 34 36  1  0  0  0  0
 34 69  1  0  0  0  0
 35 34  1  0  0  0  0
 35 70  1  0  0  0  0
 35 71  1  0  0  0  0
 36  1  1  0  0  0  0
 36 72  1  0  0  0  0
 36 73  1  0  0  0  0
 37 74  1  0  0  0  0
 37 75  1  0  0  0  0
 37 76  1  0  0  0  0
 38 40  1  0  0  0  0
 38 39  1  0  0  0  0
 38 37  1  0  0  0  0
 39 77  1  0  0  0  0
 39 78  1  0  0  0  0
 39 79  1  0  0  0  0
 40 80  1  0  0  0  0
 40 81  1  0  0  0  0
 40 82  1  0  0  0  0
 41 14  1  0  0  0  0
M  END
