@<TRIPOS>MOLECULE
lig
 82 84 0 0 0
SMALL
GASTEIGER

@<TRIPOS>ATOM
      1 S1         -1.8030   -3.6796   -8.2040 S.O2    1  <1>        -0.0255
      2 O1         -0.3694   -3.5615   -7.4733 O.2     1  <1>        -0.1738
      3 O2         -2.8469   -4.2223   -7.0971 O.2     1  <1>        -0.1738
      4 C1         -8.0127   -5.7382  -11.8075 C.3     1  <1>        -0.0540
      5 C2         -6.9642   -6.0259  -12.6821 C.3     1  <1>        -0.0609
      6 C3         -5.6454   -5.8096  -12.2735 C.3     1  <1>        -0.0580
      7 C4         -5.2610   -5.1410  -11.0466 C.3     1  <1>        -0.0389
      8 C5         -6.3938   -4.8984  -10.1493 C.3     1  <1>        -0.0147
      9 C6         -7.7387   -5.2284  -10.5361 C.3     1  <1>        -0.0176
     10 C7         -8.8177   -5.0040   -9.6354 C.3     1  <1>        -0.0540
     11 C8         -8.5528   -4.4934   -8.3526 C.3     1  <1>        -0.0612
     12 C9         -7.2508   -4.1303   -7.9854 C.3     1  <1>        -0.0612
     13 C10        -6.1829   -4.3197   -8.8744 C.3     1  <1>        -0.0538
     14 O          -4.0865  -10.3065  -16.0519 O.3     1  VAL11      -0.3932
     15 C          -5.2155   -9.6813  -15.4548 C.3     1  VAL11       0.0629
     16 N          -3.8590   -8.4139  -13.8492 N.am    1  VAL11      -0.3084
     17 CA         -4.8616   -8.2801  -14.8781 C.3     1  VAL11       0.0502
     18 CB         -4.4530   -7.2789  -16.0238 C.3     1  VAL11      -0.0071
     19 CG         -4.1783   -5.8570  -15.6294 C.3     1  VAL11      -0.0455
     20 CD1        -2.8558   -5.3459  -15.6008 C.3     1  VAL11      -0.0585
     21 CE1        -2.5877   -4.0605  -15.0875 C.3     1  VAL11      -0.0615
     22 CZ         -3.6357   -3.2635  -14.5919 C.3     1  VAL11      -0.0617
     23 CE2        -4.9632   -3.7032  -14.7273 C.3     1  VAL11      -0.0615
     24 CD2        -5.2313   -4.9715  -15.2877 C.3     1  VAL11      -0.0585
     25 N          -2.8748   -8.0661  -10.8080 N.am    1  VAL11      -0.3035
     26 CA         -2.7901   -9.1591  -11.7375 C.3     1  VAL11       0.1017
     27 C          -3.9846   -9.0428  -12.6333 C.2     1  VAL11       0.2339
     28 O          -5.0875   -9.4912  -12.2390 O.2     1  VAL11      -0.2738
     29 CB         -2.5919  -10.5032  -10.9427 C.3     1  VAL11      -0.0197
     30 CG2        -1.3236  -10.4719  -10.0240 C.3     1  VAL11      -0.0605
     31 CG1        -2.5344  -11.7159  -11.9110 C.3     1  VAL11      -0.0605
     32 C25        -2.4904   -6.7678  -11.0708 C.2     1  <1>         0.2186
     33 O5         -1.9426   -6.4475  -12.1552 O.2     1  <1>        -0.2754
     34 C26        -2.8154   -5.7054  -10.0791 C.3     1  <1>         0.0588
     35 C27        -3.7317   -4.6860  -10.7962 C.3     1  <1>        -0.0145
     36 C28        -1.5425   -4.9227   -9.5905 C.3     1  <1>         0.0777
     37 C29        -2.0001   -1.0590   -7.2978 C.3     1  <1>        -0.0405
     38 C30        -2.1847   -1.8790   -8.5989 C.3     1  <1>         0.0795
     39 C31        -1.1471   -1.3321   -9.5921 C.3     1  <1>        -0.0405
     40 C32        -3.5545   -1.4466   -9.1793 C.3     1  <1>        -0.0405
     41 H          -4.4621  -11.1056  -16.4763 H       1  VAL11       0.2095
     42 H          -2.9946   -8.0249  -14.0325 H       1  VAL11       0.1491
     43 H          -3.2597   -8.2572   -9.9246 H       1  VAL11       0.1495
     44 H4         -8.9749   -5.8976  -12.1220 H       1  <1>         0.0624
     45 H5         -7.2007   -6.3827  -13.6037 H       1  <1>         0.0618
     46 H6         -4.8897   -6.1011  -12.8886 H       1  <1>         0.0620
     47 H7         -9.7763   -5.2103   -9.9253 H       1  <1>         0.0624
     48 H8         -9.3391   -4.3632   -7.7089 H       1  <1>         0.0618
     49 H9         -7.0887   -3.7232   -7.0679 H       1  <1>         0.0618
     50 H10        -5.2532   -4.0492   -8.5661 H       1  <1>         0.0624
     51 H1         -5.9975   -9.5853  -16.2132 H       1  VAL11       0.0576
     52 H2         -5.5849  -10.3434  -14.6666 H       1  VAL11       0.0576
     53 HA         -5.7705   -7.8886  -14.4317 H       1  VAL11       0.0524
     54 HB1        -5.2557   -7.2520  -16.7686 H       1  VAL11       0.0332
     55 HB2        -3.5790   -7.6876  -16.5370 H       1  VAL11       0.0332
     56 HD1        -2.0742   -5.9094  -15.9479 H       1  VAL11       0.0620
     57 HE1        -1.6283   -3.7062  -15.0713 H       1  VAL11       0.0618
     58 HZ         -3.4346   -2.3587  -14.1534 H       1  VAL11       0.0618
     59 HE2        -5.7329   -3.1050  -14.4136 H       1  VAL11       0.0618
     60 HD2        -6.2052   -5.2545  -15.4161 H       1  VAL11       0.0620
     61 HA         -1.8932   -9.0399  -12.3508 H       1  VAL11       0.0597
     62 HB         -3.4547  -10.6405  -10.2864 H       1  VAL11       0.0318
     63 HG21       -1.2136  -11.4142   -9.4863 H       1  VAL11       0.0233
     64 HG22       -1.3906   -9.6784   -9.2751 H       1  VAL11       0.0233
     65 HG23       -0.4199  -10.3049  -10.6135 H       1  VAL11       0.0233
     66 HG11       -2.4092  -12.6422  -11.3579 H       1  VAL11       0.0233
     67 HG12       -3.4541  -11.7944  -12.4885 H       1  VAL11       0.0233
     68 HG13       -1.7020  -11.6095  -12.6045 H       1  VAL11       0.0233
     69 H29        -3.3183   -6.1769   -9.2036 H       1  <1>         0.0413
     70 H30        -3.7644   -3.7625  -10.2679 H       1  <1>         0.0321
     71 H31        -3.2501   -4.5321  -11.7618 H       1  <1>         0.0321
     72 H32        -1.0728   -4.4265  -10.4398 H       1  <1>         0.0507
     73 H33        -0.8519   -5.6630   -9.1867 H       1  <1>         0.0507
     74 H34        -2.2151   -0.0090   -7.4965 H       1  <1>         0.0251
     75 H35        -2.6826   -1.4313   -6.5338 H       1  <1>         0.0251
     76 H36        -0.9729   -1.1596   -6.9476 H       1  <1>         0.0251
     77 H37        -1.3733   -0.2898   -9.8167 H       1  <1>         0.0251
     78 H38        -1.1801   -1.9173  -10.5111 H       1  <1>         0.0251
     79 H39        -0.1520   -1.4014   -9.1528 H       1  <1>         0.0251
     80 H40        -3.5604   -0.3673   -9.3313 H       1  <1>         0.0251
     81 H41        -4.3469   -1.7197   -8.4824 H       1  <1>         0.0251
     82 H42        -3.7201   -1.9487  -10.1325 H       1  <1>         0.0251
@<TRIPOS>BOND
     1     1     3    2
     2     1    38    1
     3     2     1    2
     4     4     9   ar
     5     4     5   ar
     6     4    44    1
     7     5     6   ar
     8     5    45    1
     9     6     7   ar
    10     6    46    1
    11     7    35    1
    12     8    13   ar
    13     8     7   ar
    14     9     8   ar
    15    10    11   ar
    16    10     9   ar
    17    10    47    1
    18    11    12   ar
    19    11    48    1
    20    12    13   ar
    21    12    49    1
    22    13    50    1
    23    15    17    1
    24    15    14    1
    25    15    51    1
    26    15    52    1
    27    16    42    1
    28    16    27   am
    29    17    16    1
    30    17    53    1
    31    18    17    1
    32    18    54    1
    33    18    55    1
    34    19    18    1
    35    19    20   ar
    36    20    56    1
    37    21    20   ar
    38    21    57    1
    39    22    21   ar
    40    22    58    1
    41    23    24   ar
    42    23    22   ar
    43    23    59    1
    44    24    19   ar
    45    24    60    1
    46    25    43    1
    47    26    25    1
    48    26    29    1
    49    26    61    1
    50    27    26    1
    51    28    27    2
    52    29    31    1
    53    29    62    1
    54    30    29    1
    55    30    63    1
    56    30    64    1
    57    30    65    1
    58    31    66    1
    59    31    67    1
    60    31    68    1
    61    32    25   am
    62    33    32    2
    63    34    32    1
    64    34    36    1
    65    34    69    1
    66    35    34    1
    67    35    70    1
    68    35    71    1
    69    36     1    1
    70    36    72    1
    71    36    73    1
    72    37    74    1
    73    37    75    1
    74    37    76    1
    75    38    40    1
    76    38    39    1
    77    38    37    1
    78    39    77    1
    79    39    78    1
    80    39    79    1
    81    40    80    1
    82    40    81    1
    83    40    82    1
    84    41    14    1
