hyb
  MJ221101                      

 82 84  0  0  1  0  0  0  0  0999 V2000
    1.5884    9.8701    0.0000 S   0  0  0  0  0  0  0  0  0  0  0  0
    2.0009   10.5845    0.0000 O   0  0  0  0  0  0  0  0  0  0  0  0
    1.1759    9.1556    0.0000 O   0  0  0  0  0  0  0  0  0  0  0  0
   -1.9839   10.2826    0.0000 C   0  0  0  0  0  0  0  0  0  0  0  0
   -1.9839   11.1076    0.0000 C   0  0  0  0  0  0  0  0  0  0  0  0
   -1.2695   11.5201    0.0000 C   0  0  0  0  0  0  0  0  0  0  0  0
   -0.5550   11.1076    0.0000 C   0  0  0  0  0  0  0  0  0  0  0  0
   -0.5550   10.2826    0.0000 C   0  0  0  0  0  0  0  0  0  0  0  0
   -1.2695    9.8701    0.0000 C   0  0  0  0  0  0  0  0  0  0  0  0
   -1.2695    9.0451    0.0000 C   0  0  0  0  0  0  0  0  0  0  0  0
   -0.5550    8.6326    0.0000 C   0  0  0  0  0  0  0  0  0  0  0  0
    0.1595    9.0451    0.0000 C   0  0  0  0  0  0  0  0  0  0  0  0
    0.1595    9.8701    0.0000 C   0  0  0  0  0  0  0  0  0  0  0  0
    5.8752    9.8701    0.0000 O   0  0  0  0  0  0  0  0  0  0  0  0
    5.1608   10.2826    0.0000 C   0  0  0  0  0  0  0  0  0  0  0  0
    4.4463   11.5201    0.0000 N   0  0  0  0  0  0  0  0  0  0  0  0
    5.1608   11.1076    0.0000 C   0  0  0  0  0  0  0  0  0  0  0  0
    5.8752   11.5201    0.0000 C   0  0  0  0  0  0  0  0  0  0  0  0
    6.5897   11.1076    0.0000 C   0  0  0  0  0  0  0  0  0  0  0  0
    7.3042   11.5201    0.0000 C   0  0  0  0  0  0  0  0  0  0  0  0
    8.0187   11.1076    0.0000 C   0  0  0  0  0  0  0  0  0  0  0  0
    8.0187   10.2826    0.0000 C   0  0  0  0  0  0  0  0  0  0  0  0
    7.3042    9.8701    0.0000 C   0  0  0  0  0  0  0  0  0  0  0  0
    6.5897   10.2826    0.0000 C   0  0  0  0  0  0  0  0  0  0  0  0
    2.3029   11.1076    0.0000 N   0  0  0  0  0  0  0  0  0  0  0  0
    3.0174   11.5201    0.0000 C   0  0  0  0  0  0  0  0  0  0  0  0
    3.7318   11.1076    0.0000 C   0  0  0  0  0  0  0  0  0  0  0  0
    3.7318   10.2826    0.0000 O   0  0  0  0  0  0  0  0  0  0  0  0
    3.0174   12.3451    0.0000 C   0  0  0  0  0  0  0  0  0  0  0  0
    2.3029   12.7576    0.0000 C   0  0  0  0  0  0  0  0  0  0  0  0
    3.7318   12.7576    0.0000 C   0  0  0  0  0  0  0  0  0  0  0  0
    1.5884   11.5201    0.0000 C   0  0  0  0  0  0  0  0  0  0  0  0
    1.5884   12.3451    0.0000 O   0  0  0  0  0  0  0  0  0  0  0  0
    0.8740   11.1076    0.0000 C   0  0  0  0  0  0  0  0  0  0  0  0
    0.1595   11.5201    0.0000 C   0  0  0  0  0  0  0  0  0  0  0  0
    0.8740   10.2826    0.0000 C   0  0  0  0  0  0  0  0  0  0  0  0
    3.0174    9.0451    0.0000 C   0  0  0  0  0  0  0  0  0  0  0  0
    2.3029    9.4576    0.0000 C   0  0  0  0  0  0  0  0  0  0  0  0
    2.7153   10.1720    0.0000 C   0  0  0  0  0  0  0  0  0  0  0  0
    1.8904    8.7431    0.0000 C   0  0  0  0  0  0  0  0  0  0  0  0
    5.8752    9.0451    0.0000 H   0  0  0  0  0  0  0  0  0  0  0  0
    4.4463   12.3451    0.0000 H   0  0  0  0  0  0  0  0  0  0  0  0
    2.8863   10.5242    0.0000 H   0  0  0  0  0  0  0  0  0  0  0  0
   -2.6984    9.8701    0.0000 H   0  0  0  0  0  0  0  0  0  0  0  0
   -2.6984   11.5201    0.0000 H   0  0  0  0  0  0  0  0  0  0  0  0
   -1.2695   12.3451    0.0000 H   0  0  0  0  0  0  0  0  0  0  0  0
   -1.9839    8.6326    0.0000 H   0  0  0  0  0  0  0  0  0  0  0  0
   -0.5550    7.8076    0.0000 H   0  0  0  0  0  0  0  0  0  0  0  0
    0.8740    8.6326    0.0000 H   0  0  0  0  0  0  0  0  0  0  0  0
    0.1595   10.6951    0.0000 H   0  0  0  0  0  0  0  0  0  0  0  0
    4.3372   10.2346    0.0000 H   0  0  0  0  0  0  0  0  0  0  0  0
    4.7074    9.5933    0.0000 H   0  0  0  0  0  0  0  0  0  0  0  0
    4.4463   10.6951    0.0000 H   0  0  0  0  0  0  0  0  0  0  0  0
    6.2455   12.2573    0.0000 H   0  0  0  0  0  0  0  0  0  0  0  0
    5.5050   12.2573    0.0000 H   0  0  0  0  0  0  0  0  0  0  0  0
    7.3042   12.3451    0.0000 H   0  0  0  0  0  0  0  0  0  0  0  0
    8.7331   11.5201    0.0000 H   0  0  0  0  0  0  0  0  0  0  0  0
    8.7331    9.8701    0.0000 H   0  0  0  0  0  0  0  0  0  0  0  0
    7.3042    9.0451    0.0000 H   0  0  0  0  0  0  0  0  0  0  0  0
    5.8752   10.6951    0.0000 H   0  0  0  0  0  0  0  0  0  0  0  0
    2.3029   11.9326    0.0000 H   0  0  0  0  0  0  0  0  0  0  0  0
    3.7318   11.9326    0.0000 H   0  0  0  0  0  0  0  0  0  0  0  0
    3.0174   13.1701    0.0000 H   0  0  0  0  0  0  0  0  0  0  0  0
    2.3029   13.5826    0.0000 H   0  0  0  0  0  0  0  0  0  0  0  0
    1.5884   13.1701    0.0000 H   0  0  0  0  0  0  0  0  0  0  0  0
    4.5287   12.9711    0.0000 H   0  0  0  0  0  0  0  0  0  0  0  0
    4.1443   13.4720    0.0000 H   0  0  0  0  0  0  0  0  0  0  0  0
    3.5183   13.5545    0.0000 H   0  0  0  0  0  0  0  0  0  0  0  0
    1.5884   10.6951    0.0000 H   0  0  0  0  0  0  0  0  0  0  0  0
    0.5296   12.2573    0.0000 H   0  0  0  0  0  0  0  0  0  0  0  0
   -0.2108   12.2573    0.0000 H   0  0  0  0  0  0  0  0  0  0  0  0
    0.5918    9.5073    0.0000 H   0  0  0  0  0  0  0  0  0  0  0  0
    1.1560    9.5073    0.0000 H   0  0  0  0  0  0  0  0  0  0  0  0
    2.6049    8.3306    0.0000 H   0  0  0  0  0  0  0  0  0  0  0  0
    3.7318    8.6326    0.0000 H   0  0  0  0  0  0  0  0  0  0  0  0
    3.4299    9.7595    0.0000 H   0  0  0  0  0  0  0  0  0  0  0  0
    3.5041   10.4141    0.0000 H   0  0  0  0  0  0  0  0  0  0  0  0
    2.4734   10.9606    0.0000 H   0  0  0  0  0  0  0  0  0  0  0  0
    1.9185    9.9585    0.0000 H   0  0  0  0  0  0  0  0  0  0  0  0
    1.0935    8.5296    0.0000 H   0  0  0  0  0  0  0  0  0  0  0  0
    1.4779    8.0286    0.0000 H   0  0  0  0  0  0  0  0  0  0  0  0
    2.1039    7.9462    0.0000 H   0  0  0  0  0  0  0  0  0  0  0  0
  1  3  2  0  0  0  0
  1 38  1  0  0  0  0
  2  1  2  0  0  0  0
  4  9  2  0  0  0  0
  4  5  1  0  0  0  0
  4 44  1  0  0  0  0
  5  6  2  0  0  0  0
  5 45  1  0  0  0  0
  6  7  1  0  0  0  0
  6 46  1  0  0  0  0
  7 35  1  0  0  0  0
  8 13  1  0  0  0  0
  8  7  2  0  0  0  0
  9  8  1  0  0  0  0
 10 11  2  0  0  0  0
 10  9  1  0  0  0  0
 10 47  1  0  0  0  0
 11 12  1  0  0  0  0
 11 48  1  0  0  0  0
 12 13  2  0  0  0  0
 12 49  1  0  0  0  0
 13 50  1  0  0  0  0
 15 17  1  0  0  0  0
 15 14  1  0  0  0  0
 15 51  1  0  0  0  0
 15 52  1  0  0  0  0
 16 42  1  0  0  0  0
 16 27  1  0  0  0  0
 17 16  1  1  0  0  0
 17 53  1  6  0  0  0
 18 17  1  0  0  0  0
 18 54  1  0  0  0  0
 18 55  1  0  0  0  0
 19 18  1  0  0  0  0
 19 20  1  0  0  0  0
 20 56  1  0  0  0  0
 21 20  2  0  0  0  0
 21 57  1  0  0  0  0
 22 21  1  0  0  0  0
 22 58  1  0  0  0  0
 23 24  1  0  0  0  0
 23 22  2  0  0  0  0
 23 59  1  0  0  0  0
 24 19  2  0  0  0  0
 24 60  1  0  0  0  0
 25 43  1  0  0  0  0
 26 25  1  1  0  0  0
 26 29  1  0  0  0  0
 26 61  1  6  0  0  0
 27 26  1  0  0  0  0
 28 27  2  0  0  0  0
 29 31  1  0  0  0  0
 29 62  1  0  0  0  0
 30 29  1  0  0  0  0
 30 63  1  0  0  0  0
 30 64  1  0  0  0  0
 30 65  1  0  0  0  0
 31 66  1  0  0  0  0
 31 67  1  0  0  0  0
 31 68  1  0  0  0  0
 32 25  1  0  0  0  0
 33 32  2  0  0  0  0
 34 32  1  1  0  0  0
 34 36  1  0  0  0  0
 34 69  1  6  0  0  0
 35 34  1  0  0  0  0
 35 70  1  0  0  0  0
 35 71  1  0  0  0  0
 36  1  1  0  0  0  0
 36 72  1  0  0  0  0
 36 73  1  0  0  0  0
 37 74  1  0  0  0  0
 37 75  1  0  0  0  0
 37 76  1  0  0  0  0
 38 40  1  0  0  0  0
 38 39  1  0  0  0  0
 38 37  1  0  0  0  0
 39 77  1  0  0  0  0
 39 78  1  0  0  0  0
 39 79  1  0  0  0  0
 40 80  1  0  0  0  0
 40 81  1  0  0  0  0
 40 82  1  0  0  0  0
 41 14  1  0  0  0  0
M  END
