HYB
  CCTOOLS-0919241030

 82 84  0  0  1  0  0  0  0  0999 V2000
    1.3920    0.5070   -4.2160 S   0  0  0  0  0
    0.7280   -0.3700   -5.1150 O   0  0  0  0  0
    0.9040    1.8300   -4.0380 O   0  0  0  0  0
   -4.2820    1.0720   -3.8450 C   0  0  0  0  0
   -3.1930    1.0170   -4.6600 C   0  0  0  0  0
   -2.0670    0.2770   -4.3040 C   0  0  0  0  0
   -2.0240   -0.4120   -3.1310 C   0  0  0  0  0
   -3.1310   -0.3830   -2.2660 C   0  0  0  0  0
   -4.2740    0.3730   -2.6260 C   0  0  0  0  0
   -5.3800    0.4060   -1.7590 C   0  0  0  0  0
   -5.3360   -0.2820   -0.5860 C   0  0  0  0  0
   -4.2100   -1.0220   -0.2300 C   0  0  0  0  0
   -3.1210   -1.0770   -1.0440 C   0  0  0  0  0
    3.5500    0.0920    5.8850 O   0  0  0  0  0
    3.0210    1.2910    5.3160 C   0  0  0  0  0
    1.4020   -0.0100    4.0240 N   0  0  0  0  0
    1.5410    1.0880    4.9830 C   0  0  0  0  0
    0.7730    0.7480    6.2620 C   0  0  0  0  0
   -0.6830    0.5480    5.9350 C   0  0  0  0  0
   -1.1500   -0.7080    5.5970 C   0  0  0  0  0
   -2.4860   -0.8910    5.2970 C   0  0  0  0  0
   -3.3570    0.1810    5.3350 C   0  0  0  0  0
   -2.8910    1.4370    5.6730 C   0  0  0  0  0
   -1.5550    1.6200    5.9780 C   0  0  0  0  0
    1.0540   -0.3060    0.3680 N   0  0  0  0  0
    1.1760   -0.8680    1.7150 C   0  0  0  0  0
    1.4330    0.2420    2.7010 C   0  0  0  0  0
    1.6670    1.3640    2.3030 O   0  0  0  0  0
    2.3390   -1.8610    1.7510 C   0  0  0  0  0
    2.0080   -3.0660    0.8680 C   0  0  0  0  0
    3.6070   -1.1800    1.2300 C   0  0  0  0  0
    0.2700   -0.9120   -0.5450 C   0  0  0  0  0
   -0.3340   -1.9210   -0.2520 O   0  0  0  0  0
    0.1440   -0.3340   -1.9320 C   0  0  0  0  0
   -0.7970   -1.2060   -2.7640 C   0  0  0  0  0
    1.5230   -0.2960   -2.5950 C   0  0  0  0  0
    3.3080    1.2380   -6.0250 C   0  0  0  0  0
    3.1510    0.5800   -4.6530 C   0  0  0  0  0
    3.9030    1.4010   -3.6040 C   0  0  0  0  0
    3.7240   -0.8370   -4.6990 C   0  0  0  0  0
   -5.1470    1.6500   -4.1340 H   0  0  0  0  0
   -3.2010    1.5550   -5.5960 H   0  0  0  0  0
   -1.2160    0.2500   -4.9680 H   0  0  0  0  0
   -6.2590    0.9760   -2.0210 H   0  0  0  0  0
   -6.1870   -0.2550    0.0780 H   0  0  0  0  0
   -4.2010   -1.5600    0.7060 H   0  0  0  0  0
   -2.2550   -1.6540   -0.7550 H   0  0  0  0  0
    4.4820    0.2620    6.0800 H   0  0  0  0  0
    3.5680    1.5330    4.4050 H   0  0  0  0  0
    3.1240    2.1080    6.0290 H   0  0  0  0  0
    1.2890   -0.9200    4.3420 H   0  0  0  0  0
    1.1370    2.0020    4.5490 H   0  0  0  0  0
    1.1770   -0.1660    6.6970 H   0  0  0  0  0
    0.8760    1.5660    6.9760 H   0  0  0  0  0
   -0.4690   -1.5460    5.5670 H   0  0  0  0  0
   -2.8500   -1.8730    5.0320 H   0  0  0  0  0
   -4.4010    0.0370    5.0990 H   0  0  0  0  0
   -3.5710    2.2760    5.7030 H   0  0  0  0  0
   -1.1910    2.6020    6.2430 H   0  0  0  0  0
    1.5370    0.5000    0.1330 H   0  0  0  0  0
    0.2510   -1.3810    1.9800 H   0  0  0  0  0
    2.5010   -2.1940    2.7760 H   0  0  0  0  0
    2.8370   -3.7730    0.8940 H   0  0  0  0  0
    1.1050   -3.5510    1.2390 H   0  0  0  0  0
    1.8460   -2.7320   -0.1560 H   0  0  0  0  0
    3.4720   -0.9160    0.1810 H   0  0  0  0  0
    3.7990   -0.2780    1.8100 H   0  0  0  0  0
    4.4510   -1.8620    1.3280 H   0  0  0  0  0
   -0.2560    0.6760   -1.8690 H   0  0  0  0  0
   -0.2870   -1.5270   -3.6720 H   0  0  0  0  0
   -1.0910   -2.0810   -2.1840 H   0  0  0  0  0
    2.2130    0.2650   -1.9650 H   0  0  0  0  0
    1.8930   -1.3130   -2.7220 H   0  0  0  0  0
    4.3650    1.2820   -6.2880 H   0  0  0  0  0
    2.7720    0.6540   -6.7730 H   0  0  0  0  0
    2.8990    2.2480   -5.9930 H   0  0  0  0  0
    3.4950    2.4110   -3.5720 H   0  0  0  0  0
    3.7910    0.9320   -2.6270 H   0  0  0  0  0
    4.9600    1.4450   -3.8670 H   0  0  0  0  0
    3.1880   -1.4220   -5.4460 H   0  0  0  0  0
    4.7810   -0.7930   -4.9620 H   0  0  0  0  0
    3.6120   -1.3060   -3.7220 H   0  0  0  0  0
  1  2  2  0  0  0
  1  3  2  0  0  0
  1 36  1  0  0  0
  1 38  1  0  0  0
  4  5  2  0  0  0
  4  9  1  0  0  0
  4 41  1  0  0  0
  5  6  1  0  0  0
  5 42  1  0  0  0
  6  7  2  0  0  0
  6 43  1  0  0  0
  7  8  1  0  0  0
  7 35  1  0  0  0
  8  9  2  0  0  0
  8 13  1  0  0  0
  9 10  1  0  0  0
 10 11  2  0  0  0
 10 44  1  0  0  0
 11 12  1  0  0  0
 11 45  1  0  0  0
 12 13  2  0  0  0
 12 46  1  0  0  0
 13 47  1  0  0  0
 14 15  1  0  0  0
 14 48  1  0  0  0
 15 17  1  0  0  0
 15 49  1  0  0  0
 15 50  1  0  0  0
 16 17  1  0  0  0
 16 27  1  0  0  0
 16 51  1  0  0  0
 17 18  1  0  0  0
 17 52  1  0  0  0
 18 19  1  0  0  0
 18 53  1  0  0  0
 18 54  1  0  0  0
 19 20  2  0  0  0
 19 24  1  0  0  0
 20 21  1  0  0  0
 20 55  1  0  0  0
 21 22  2  0  0  0
 21 56  1  0  0  0
 22 23  1  0  0  0
 22 57  1  0  0  0
 23 24  2  0  0  0
 23 58  1  0  0  0
 24 59  1  0  0  0
 25 26  1  0  0  0
 25 32  1  0  0  0
 25 60  1  0  0  0
 26 27  1  0  0  0
 26 29  1  0  0  0
 26 61  1  0  0  0
 27 28  2  0  0  0
 29 30  1  0  0  0
 29 31  1  0  0  0
 29 62  1  0  0  0
 30 63  1  0  0  0
 30 64  1  0  0  0
 30 65  1  0  0  0
 31 66  1  0  0  0
 31 67  1  0  0  0
 31 68  1  0  0  0
 32 33  2  0  0  0
 32 34  1  0  0  0
 34 35  1  0  0  0
 34 36  1  0  0  0
 34 69  1  0  0  0
 35 70  1  0  0  0
 35 71  1  0  0  0
 36 72  1  0  0  0
 36 73  1  0  0  0
 37 38  1  0  0  0
 37 74  1  0  0  0
 37 75  1  0  0  0
 37 76  1  0  0  0
 38 39  1  0  0  0
 38 40  1  0  0  0
 39 77  1  0  0  0
 39 78  1  0  0  0
 39 79  1  0  0  0
 40 80  1  0  0  0
 40 81  1  0  0  0
 40 82  1  0  0  0
M  END
$$$$
